@<TRIPOS>MOLECULE
3R136
137   139    1
SMALL
USER_CHARGES


@<TRIPOS>ATOM
      1 CA         26.7499   26.6085    3.2892 C.3       0 UNK        -0.1979 
      2 C          26.7120   25.1552    3.7369 C.2       0 UNK         0.4864 
      3 O          26.4960   24.8837    4.9189 O.2       0 UNK        -0.5359 
      4 N          26.9297   24.2251    2.8037 N.am      1 UNK        -0.4318 
      5 CA         26.9622   22.7816    3.0362 C.3       1 UNK         0.0824 
      6 C6         28.3597   22.2840    3.5093 C.3       12 UNK        -0.0944 
      7 S7         29.7382   22.6827    2.3715 S.3       12 UNK        -0.2672 
      8 C8         30.4303   24.1438    3.1992 C.3       12 UNK         0.0333 
      9 C9         31.6066   24.7176    2.4291 C.ar      12 UNK        -0.0807 
     10 C10        32.9111   24.3552    2.7706 C.ar      12 UNK        -0.0894 
     11 C11        33.9988   24.9224    2.1029 C.ar      12 UNK        -0.0804 
     12 C12        33.7710   25.8588    1.0908 C.ar      12 UNK        -0.0824 
     13 C13        32.4710   26.2226    0.7228 C.ar      12 UNK        -0.0762 
     14 C14        31.3898   25.6308    1.3930 C.ar      12 UNK        -0.0782 
     15 C15        32.3105   27.2778   -0.3759 C.3       12 UNK         0.0230 
     16 S16        30.6289   27.5049   -1.0487 S.3       12 UNK        -0.2608 
     17 C17        29.8577   28.5817    0.2061 C.3       12 UNK        -0.0989 
     18 CA         28.4402   29.0384   -0.2195 C.3       5 UNK         0.0716 
     19 N          27.5592   27.8960   -0.4643 N.am      5 UNK        -0.4135 
     20 C          26.4088   27.9305   -1.1426 C.2       4 UNK         0.5031 
     21 O          25.9610   28.9484   -1.6752 O.2       4 UNK        -0.5229 
     22 CA         25.6543   26.5907   -1.2690 C.3       4 UNK         0.0329 
     23 CB         24.3955   26.6984   -2.1504 C.3       4 UNK        -0.2001 
     24 N          26.5084   25.5177   -1.7916 N.am      4 UNK        -0.4303 
     25 C          27.3884   24.8141   -1.0702 C.2       3 UNK         0.5044 
     26 O          27.6096   25.0213    0.1274 O.2       3 UNK        -0.5152 
     27 CA         28.1590   23.7058   -1.7994 C.3       3 UNK         0.0319 
     28 CB         29.6502   24.0580   -1.9134 C.3       3 UNK        -0.2001 
     29 N          28.0154   22.4808   -1.0228 N.am      3 UNK        -0.4354 
     30 C          27.0665   21.5556   -1.2233 C.2       2 UNK         0.4964 
     31 O          26.3416   21.5136   -2.2179 O.2       2 UNK        -0.5047 
     32 CA         26.8611   20.5296   -0.0926 C.3       2 UNK         0.0288 
     33 CB         27.7628   19.3019   -0.2993 C.3       2 UNK        -0.2113 
     34 N          27.1208   21.1106    1.2285 N.am      2 UNK        -0.4145 
     35 C          26.3932   22.0922    1.7822 C.2       1 UNK         0.5006 
     36 O          25.3176   22.4807    1.3196 O.2       1 UNK        -0.5103 
     37 C          27.8353   29.9757    0.8432 C.2       5 UNK         0.5055 
     38 O          27.1305   29.5130    1.7442 O.2       5 UNK        -0.5220 
     39 N          28.1626   31.2708    0.7458 N.am      6 UNK        -0.4450 
     40 CA         27.8710   32.2745    1.7731 C.3       6 UNK         0.0367 
     41 CB         28.1674   33.6716    1.2040 C.3       6 UNK        -0.1929 
     42 C          28.7144   32.0286    3.0344 C.2       6 UNK         0.5070 
     43 O          29.8037   31.4622    2.9320 O.2       6 UNK        -0.5237 
     44 N          28.2380   32.5031    4.1922 N.am      7 UNK        -0.4739 
     45 CA         28.8713   32.3061    5.5058 C.3       7 UNK         0.0276 
     46 CB         27.9858   32.9368    6.5927 C.3       7 UNK        -0.1927 
     47 C          30.3178   32.8280    5.6225 C.2       7 UNK         0.5013 
     48 O          31.0872   32.2917    6.4193 O.2       7 UNK        -0.5193 
     49 N          30.6642   33.8450    4.8220 N.am      8 UNK        -0.4253 
     50 CA         32.0194   34.3889    4.7082 C.3       8 UNK         0.0242 
     51 CB         31.9345   35.8263    4.1681 C.3       8 UNK        -0.2000 
     52 C          32.9486   33.5395    3.8183 C.2       8 UNK         0.4948 
     53 O          34.1672   33.6607    3.9507 O.2       8 UNK        -0.5275 
     54 N          32.3760   32.7275    2.9187 N.am      9 UNK        -0.4246 
     55 CA         33.1008   31.8842    1.9652 C.3       9 UNK         0.0261 
     56 CB         32.4182   31.9806    0.5900 C.3       9 UNK        -0.1959 
     57 C          33.1718   30.4199    2.4248 C.2       9 UNK         0.5033 
     58 O          34.1703   29.7552    2.1453 O.2       9 UNK        -0.5390 
     59 N          32.1179   29.9387    3.0987 N.am      10 UNK        -0.4215 
     60 CA         32.0043   28.5861    3.6421 C.3       10 UNK         0.0240 
     61 CB         30.5830   28.3808    4.1942 C.3       10 UNK        -0.1982 
     62 C          33.0506   28.2997    4.7309 C.2       10 UNK         0.4970 
     63 O          33.3227   29.1687    5.5622 O.2       10 UNK        -0.4916 
     64 N          33.5867   27.0742    4.7240 N.am      11 UNK        -0.4279 
     65 CA         34.5816   26.5950    5.6982 C.3       11 UNK         0.1003 
     66 C          34.0129   26.2986    7.1175 C.2       11 UNK         0.5709 
     67 N          32.7007   26.2591    7.3182 N.am      11 UNK        -0.7358 
     68 O          34.7808   26.1064    8.0574 O.2       11 UNK        -0.4999 
     69 C69        35.3812   25.3784    5.1616 C.3       12 UNK        -0.0954 
     70 S70        36.2190   25.7157    3.5751 S.3       12 UNK        -0.2268 
     71 C71        35.4213   24.5169    2.4611 C.3       12 UNK         0.0203 
     72 H72        26.9585   26.7010    2.2241 H         1 UNK         0.0888 
     73 H73        25.7935   27.0911    3.4874 H         1 UNK         0.0888 
     74 H74        27.5238   27.1515    3.8309 H         1 UNK         0.0888 
     75 H75        27.0921   24.5037    1.8366 H         1 UNK         0.3017 
     76 H76        26.2476   22.5456    3.8277 H         1 UNK         0.0873 
     77 H77        28.3468   21.2060    3.6789 H         1 UNK         0.0745 
     78 H78        28.5762   22.7138    4.4886 H         1 UNK         0.0745 
     79 H79        30.7375   23.8751    4.2112 H         1 UNK         0.0705 
     80 H80        29.6578   24.9057    3.3050 H         1 UNK         0.0705 
     81 H81        33.0774   23.6317    3.5572 H         1 UNK         0.1334 
     82 H82        34.6157   26.3090    0.5864 H         1 UNK         0.1417 
     83 H83        30.3717   25.8761    1.1298 H         1 UNK         0.1562 
     84 H84        32.9571   27.0054   -1.2114 H         1 UNK         0.0748 
     85 H85        32.6796   28.2353   -0.0052 H         1 UNK         0.0748 
     86 H86        30.5081   29.4437    0.3622 H         1 UNK         0.0940 
     87 H87        29.8197   28.0555    1.1597 H         1 UNK         0.0940 
     88 H88        28.5259   29.5973   -1.1542 H         1 UNK         0.0703 
     89 H89        27.8451   27.0073   -0.0699 H         1 UNK         0.3081 
     90 H90        25.3267   26.3175   -0.2632 H         1 UNK         0.0719 
     91 H91        24.6421   26.9789   -3.1752 H         1 UNK         0.0809 
     92 H92        23.8511   25.7543   -2.1817 H         1 UNK         0.0809 
     93 H93        23.7087   27.4517   -1.7618 H         1 UNK         0.0809 
     94 H94        26.4119   25.3098   -2.7754 H         1 UNK         0.2990 
     95 H95        27.7548   23.5704   -2.8049 H         1 UNK         0.0690 
     96 H96        30.2101   23.2583   -2.3981 H         1 UNK         0.0788 
     97 H97        30.1024   24.2368   -0.9367 H         1 UNK         0.0788 
     98 H98        29.7918   24.9599   -2.5098 H         1 UNK         0.0788 
     99 H99        28.5286   22.4566   -0.1526 H         1 UNK         0.2993 
    100 H100       25.8187   20.2048   -0.1236 H         1 UNK         0.0949 
    101 H101       28.8208   19.5653   -0.2629 H         1 UNK         0.0767 
    102 H102       27.5788   18.5425    0.4610 H         1 UNK         0.0767 
    103 H103       27.5745   18.8399   -1.2695 H         1 UNK         0.0767 
    104 H104       27.9970   20.8656    1.6693 H         1 UNK         0.3013 
    105 H105       28.7605   31.5663   -0.0117 H         1 UNK         0.3121 
    106 H106       26.8129   32.2088    2.0357 H         1 UNK         0.0774 
    107 H107       27.9265   34.4507    1.9284 H         1 UNK         0.0815 
    108 H108       29.2196   33.7869    0.9395 H         1 UNK         0.0815 
    109 H109       27.5736   33.8703    0.3115 H         1 UNK         0.0815 
    110 H110       27.3470   32.9797    4.1902 H         1 UNK         0.2987 
    111 H111       28.9124   31.2291    5.6831 H         1 UNK         0.0949 
    112 H112       27.8732   34.0120    6.4482 H         1 UNK         0.0806 
    113 H113       26.9907   32.4917    6.6034 H         1 UNK         0.0806 
    114 H114       28.4156   32.7847    7.5841 H         1 UNK         0.0806 
    115 H115       29.9582   34.2338    4.2141 H         1 UNK         0.3010 
    116 H116       32.4660   34.4264    5.7044 H         1 UNK         0.0829 
    117 H117       31.3372   36.4619    4.8222 H         1 UNK         0.0813 
    118 H118       32.9259   36.2766    4.0998 H         1 UNK         0.0813 
    119 H119       31.4931   35.8590    3.1711 H         1 UNK         0.0813 
    120 H120       31.3670   32.6229    2.9271 H         1 UNK         0.3038 
    121 H121       34.1266   32.2423    1.8541 H         1 UNK         0.0769 
    122 H122       32.9098   31.3340   -0.1384 H         1 UNK         0.0811 
    123 H123       32.4607   32.9978    0.2006 H         1 UNK         0.0811 
    124 H124       31.3699   31.6859    0.6359 H         1 UNK         0.0811 
    125 H125       31.3085   30.5439    3.2238 H         1 UNK         0.3204 
    126 H126       32.1624   27.8964    2.8155 H         1 UNK         0.0748 
    127 H127       30.4341   27.3513    4.5218 H         1 UNK         0.0771 
    128 H128       30.3902   29.0299    5.0497 H         1 UNK         0.0771 
    129 H129       29.8231   28.5952    3.4433 H         1 UNK         0.0771 
    130 H130       33.3323   26.4218    3.9957 H         1 UNK         0.2980 
    131 H131       35.2991   27.4056    5.8398 H         1 UNK         0.0545 
    132 H132       32.3501   26.0702    8.2439 H         1 UNK         0.3459 
    133 H133       32.0612   26.4228    6.5589 H         1 UNK         0.3459 
    134 H134       36.1569   25.0925    5.8744 H         1 UNK         0.0616 
    135 H135       34.7324   24.5074    5.0640 H         1 UNK         0.0616 
    136 H136       36.0156   24.4413    1.5493 H         1 UNK         0.0634 
    137 H137       35.4399   23.5251    2.9158 H         1 UNK         0.0634 
@<TRIPOS>BOND
     1    1    2 1    
     2    1   72 1    
     3    1   73 1    
     4    1   74 1    
     5    2    3 2    
     6    2    4 am   BACKBONE|DICT|INTERRES
     7    4    5 1    
     8    4   75 1    
     9    5    6 1    
    10    5   35 1    
    11    5   76 1    
    12    6    7 1    
    13    6   77 1    
    14    6   78 1    
    15    7    8 1    
    16    8    9 1    
    17    8   79 1    
    18    8   80 1    
    19    9   10 ar   
    20    9   14 ar   
    21   10   11 ar   
    22   10   81 1    
    23   11   12 ar   
    24   11   71 1    
    25   12   13 ar   
    26   12   82 1    
    27   13   14 ar   
    28   13   15 1    
    29   14   83 1    
    30   15   16 1    
    31   15   84 1    
    32   15   85 1    
    33   16   17 1    
    34   17   18 1    
    35   17   86 1    
    36   17   87 1    
    37   18   19 1    
    38   18   37 1    
    39   18   88 1    
    40   19   20 am   BACKBONE|DICT|INTERRES
    41   19   89 1    
    42   20   21 2    
    43   20   22 1    
    44   22   23 1    
    45   22   24 1    
    46   22   90 1    
    47   23   91 1    
    48   23   92 1    
    49   23   93 1    
    50   24   25 am   BACKBONE|DICT|INTERRES
    51   24   94 1    
    52   25   26 2    
    53   25   27 1    
    54   27   28 1    
    55   27   29 1    
    56   27   95 1    
    57   28   96 1    
    58   28   97 1    
    59   28   98 1    
    60   29   30 am   BACKBONE|DICT|INTERRES
    61   29   99 1    
    62   30   31 2    
    63   30   32 1    
    64   32   33 1    
    65   32   34 1    
    66   32  100 1    
    67   33  101 1    
    68   33  102 1    
    69   33  103 1    
    70   34   35 am   BACKBONE|DICT|INTERRES
    71   34  104 1    
    72   35   36 2    
    73   37   38 2    
    74   37   39 am   BACKBONE|DICT|INTERRES
    75   39   40 1    
    76   39  105 1    
    77   40   41 1    
    78   40   42 1    
    79   40  106 1    
    80   41  107 1    
    81   41  108 1    
    82   41  109 1    
    83   42   43 2    
    84   42   44 am   BACKBONE|DICT|INTERRES
    85   44   45 1    
    86   44  110 1    
    87   45   46 1    
    88   45   47 1    
    89   45  111 1    
    90   46  112 1    
    91   46  113 1    
    92   46  114 1    
    93   47   48 2    
    94   47   49 am   BACKBONE|DICT|INTERRES
    95   49   50 1    
    96   49  115 1    
    97   50   51 1    
    98   50   52 1    
    99   50  116 1    
   100   51  117 1    
   101   51  118 1    
   102   51  119 1    
   103   52   53 2    
   104   52   54 am   BACKBONE|DICT|INTERRES
   105   54   55 1    
   106   54  120 1    
   107   55   56 1    
   108   55   57 1    
   109   55  121 1    
   110   56  122 1    
   111   56  123 1    
   112   56  124 1    
   113   57   58 2    
   114   57   59 am   BACKBONE|DICT|INTERRES
   115   59   60 1    
   116   59  125 1    
   117   60   61 1    
   118   60   62 1    
   119   60  126 1    
   120   61  127 1    
   121   61  128 1    
   122   61  129 1    
   123   62   63 2    
   124   62   64 am   BACKBONE|DICT|INTERRES
   125   64   65 1    
   126   64  130 1    
   127   65   66 1    
   128   65   69 1    
   129   65  131 1    
   130   66   67 am   BACKBONE|DICT|INTERRES
   131   66   68 2    
   132   67  132 1    
   133   67  133 1    
   134   69   70 1    
   135   69  134 1    
   136   69  135 1    
   137   70   71 1    
   138   71  136 1    
   139   71  137 1    
@<TRIPOS>SUBSTRUCTURE
     1 UNK         1 GROUP             0       ****    0 ROOT    
