@<TRIPOS>MOLECULE
3R136
137   139    1
SMALL
USER_CHARGES


@<TRIPOS>ATOM
      1 CA         29.4855   23.1270   -1.7710 C.3       0 UNK        -0.1979 
      2 C          28.9852   22.8043   -0.3716 C.2       0 UNK         0.4864 
      3 O          28.3712   21.7560   -0.1658 O.2       0 UNK        -0.5359 
      4 N          29.2287   23.7160    0.5783 N.am      1 UNK        -0.4318 
      5 CA         28.8600   23.6586    1.9974 C.3       1 UNK         0.0824 
      6 C6         29.6611   22.6065    2.8167 C.3       12 UNK        -0.0944 
      7 S7         31.4682   22.8371    2.7267 S.3       12 UNK        -0.2672 
      8 C8         31.7871   23.9315    4.1476 C.3       12 UNK         0.0333 
      9 C9         31.4201   25.3736    3.8320 C.ar      12 UNK        -0.0807 
     10 C10        32.2047   26.1060    2.9371 C.ar      12 UNK        -0.0894 
     11 C11        31.8833   27.4295    2.6272 C.ar      12 UNK        -0.0804 
     12 C12        30.7558   28.0129    3.2109 C.ar      12 UNK        -0.0824 
     13 C13        29.9483   27.2867    4.0914 C.ar      12 UNK        -0.0762 
     14 C14        30.2957   25.9702    4.4120 C.ar      12 UNK        -0.0782 
     15 C15        28.6984   27.9179    4.6920 C.3       12 UNK         0.0230 
     16 S16        27.2486   27.7279    3.6048 S.3       12 UNK        -0.2608 
     17 C17        27.4989   29.0546    2.3743 C.3       12 UNK        -0.0989 
     18 CA         27.8855   28.5011    0.9786 C.3       5 UNK         0.0716 
     19 N          26.7902   27.7386    0.3732 N.am      5 UNK        -0.4135 
     20 C          26.9519   26.7030   -0.4557 C.2       4 UNK         0.5031 
     21 O          28.0377   26.1723   -0.7025 O.2       4 UNK        -0.5229 
     22 CA         25.6955   26.2074   -1.1806 C.3       4 UNK         0.0329 
     23 CB         25.6906   26.7400   -2.6291 C.3       4 UNK        -0.2001 
     24 N          25.6729   24.7459   -1.1490 N.am      4 UNK        -0.4303 
     25 C          24.6697   23.9620   -1.5672 C.2       3 UNK         0.5044 
     26 O          23.6284   24.3835   -2.0720 O.2       3 UNK        -0.5152 
     27 CA         24.8418   22.4459   -1.3678 C.3       3 UNK         0.0319 
     28 CB         25.7279   21.8395   -2.4674 C.3       3 UNK        -0.2001 
     29 N          25.3850   22.1209   -0.0469 N.am      3 UNK        -0.4354 
     30 C          24.6765   22.2082    1.0909 C.2       2 UNK         0.4964 
     31 O          23.4766   22.4835    1.1290 O.2       2 UNK        -0.5047 
     32 CA         25.4203   21.9570    2.4158 C.3       2 UNK         0.0288 
     33 CB         25.2631   20.4921    2.8548 C.3       2 UNK        -0.2113 
     34 N          26.8439   22.2917    2.3554 N.am      2 UNK        -0.4145 
     35 C          27.3335   23.5259    2.1679 C.2       1 UNK         0.5006 
     36 O          26.6275   24.5310    2.0916 O.2       1 UNK        -0.5103 
     37 C          28.2816   29.6514    0.0293 C.2       5 UNK         0.5055 
     38 O          27.4809   30.0601   -0.8177 O.2       5 UNK        -0.5220 
     39 N          29.5011   30.1715    0.2090 N.am      6 UNK        -0.4450 
     40 CA         30.0170   31.3569   -0.4781 C.3       6 UNK         0.0367 
     41 CB         31.5278   31.1596   -0.7201 C.3       6 UNK        -0.1929 
     42 C          29.7215   32.6245    0.3496 C.2       6 UNK         0.5070 
     43 O          28.8819   32.5970    1.2531 O.2       6 UNK        -0.5237 
     44 N          30.4311   33.7203    0.0426 N.am      7 UNK        -0.4739 
     45 CA         30.4464   34.9427    0.8565 C.3       7 UNK         0.0276 
     46 CB         31.1069   36.0805    0.0614 C.3       7 UNK        -0.1927 
     47 C          31.1590   34.7382    2.2084 C.2       7 UNK         0.5013 
     48 O          30.7821   35.3713    3.1955 O.2       7 UNK        -0.5193 
     49 N          32.1560   33.8437    2.2256 N.am      8 UNK        -0.4253 
     50 CA         32.7845   33.3073    3.4308 C.3       8 UNK         0.0242 
     51 CB         34.2448   32.9459    3.1122 C.3       8 UNK        -0.2000 
     52 C          32.0151   32.0622    3.8981 C.2       8 UNK         0.4948 
     53 O          31.4013   31.3800    3.0735 O.2       8 UNK        -0.5275 
     54 N          32.0876   31.7756    5.2018 N.am      9 UNK        -0.4246 
     55 CA         31.4843   30.6025    5.8312 C.3       9 UNK         0.0261 
     56 CB         30.5271   31.0610    6.9438 C.3       9 UNK        -0.1959 
     57 C          32.5835   29.7016    6.4051 C.2       9 UNK         0.5033 
     58 O          33.6177   30.2149    6.8402 O.2       9 UNK        -0.5390 
     59 N          32.3135   28.3866    6.4254 N.am      10 UNK        -0.4215 
     60 CA         33.1713   27.3088    6.9388 C.3       10 UNK         0.0240 
     61 CB         33.2587   27.3744    8.4787 C.3       10 UNK        -0.1982 
     62 C          34.5529   27.2781    6.2563 C.2       10 UNK         0.4970 
     63 O          35.5828   27.2817    6.9332 O.2       10 UNK        -0.4916 
     64 N          34.5358   27.2792    4.9180 N.am      11 UNK        -0.4279 
     65 CA         35.7212   27.3873    4.0522 C.3       11 UNK         0.1003 
     66 C          36.7061   26.1820    4.1044 C.2       11 UNK         0.5709 
     67 N          36.3245   25.0315    4.6466 N.am      11 UNK        -0.7358 
     68 O          37.8393   26.2962    3.6433 O.2       11 UNK        -0.4999 
     69 C69        35.3397   27.7080    2.5816 C.3       12 UNK        -0.0954 
     70 S70        34.1300   29.0660    2.4069 S.3       12 UNK        -0.2268 
     71 C71        32.7213   28.2146    1.6272 C.3       12 UNK         0.0203 
     72 H72        30.3888   23.7358   -1.7370 H         1 UNK         0.0888 
     73 H73        28.7258   23.6758   -2.3269 H         1 UNK         0.0888 
     74 H74        29.7170   22.2114   -2.3145 H         1 UNK         0.0888 
     75 H75        29.6555   24.5887    0.2974 H         1 UNK         0.3017 
     76 H76        29.1043   24.6442    2.3908 H         1 UNK         0.0873 
     77 H77        29.3566   22.6225    3.8649 H         1 UNK         0.0745 
     78 H78        29.4567   21.5975    2.4553 H         1 UNK         0.0745 
     79 H79        31.2526   23.5686    5.0268 H         1 UNK         0.0705 
     80 H80        32.8484   23.8815    4.3952 H         1 UNK         0.0705 
     81 H81        33.0571   25.6319    2.4711 H         1 UNK         0.1334 
     82 H82        30.4974   29.0321    2.9669 H         1 UNK         0.1417 
     83 H83        29.6754   25.4017    5.0921 H         1 UNK         0.1562 
     84 H84        28.8581   28.9742    4.9092 H         1 UNK         0.0748 
     85 H85        28.4725   27.4482    5.6506 H         1 UNK         0.0748 
     86 H86        28.2533   29.7499    2.7469 H         1 UNK         0.0940 
     87 H87        26.5778   29.6373    2.3107 H         1 UNK         0.0940 
     88 H88        28.7547   27.8494    1.0938 H         1 UNK         0.0703 
     89 H89        25.8696   28.1373    0.4805 H         1 UNK         0.3081 
     90 H90        24.8106   26.5737   -0.6562 H         1 UNK         0.0719 
     91 H91        26.5131   26.3225   -3.2113 H         1 UNK         0.0809 
     92 H92        24.7609   26.5066   -3.1471 H         1 UNK         0.0809 
     93 H93        25.7987   27.8256   -2.6458 H         1 UNK         0.0809 
     94 H94        26.4819   24.3249   -0.7128 H         1 UNK         0.2990 
     95 H95        23.8541   21.9866   -1.4513 H         1 UNK         0.0690 
     96 H96        25.8106   20.7580   -2.3579 H         1 UNK         0.0788 
     97 H97        26.7350   22.2538   -2.4556 H         1 UNK         0.0788 
     98 H98        25.3084   22.0342   -3.4554 H         1 UNK         0.0788 
     99 H99        26.3713   21.8803    0.0023 H         1 UNK         0.2993 
    100 H100       24.9597   22.5955    3.1730 H         1 UNK         0.0949 
    101 H101       25.7242   19.8056    2.1433 H         1 UNK         0.0767 
    102 H102       25.7155   20.3194    3.8316 H         1 UNK         0.0767 
    103 H103       24.2095   20.2200    2.9349 H         1 UNK         0.0767 
    104 H104       27.4908   21.5161    2.3435 H         1 UNK         0.3013 
    105 H105       30.0614   29.8430    0.9807 H         1 UNK         0.3121 
    106 H106       29.5246   31.4688   -1.4464 H         1 UNK         0.0774 
    107 H107       31.9328   31.9292   -1.3777 H         1 UNK         0.0815 
    108 H108       31.7292   30.2021   -1.2012 H         1 UNK         0.0815 
    109 H109       32.0949   31.1897    0.2115 H         1 UNK         0.0815 
    110 H110       31.0723   33.6839   -0.7370 H         1 UNK         0.2987 
    111 H111       29.4132   35.2271    1.0690 H         1 UNK         0.0949 
    112 H112       30.5701   36.2804   -0.8662 H         1 UNK         0.0806 
    113 H113       31.1096   37.0068    0.6379 H         1 UNK         0.0806 
    114 H114       32.1429   35.8516   -0.1912 H         1 UNK         0.0806 
    115 H115       32.3400   33.3380    1.3728 H         1 UNK         0.3010 
    116 H116       32.7680   34.0584    4.2238 H         1 UNK         0.0829 
    117 H117       34.7493   32.5394    3.9899 H         1 UNK         0.0813 
    118 H118       34.3121   32.1954    2.3234 H         1 UNK         0.0813 
    119 H119       34.8087   33.8216    2.7906 H         1 UNK         0.0813 
    120 H120       32.6910   32.3259    5.7977 H         1 UNK         0.3038 
    121 H121       30.9142   30.0327    5.1001 H         1 UNK         0.0769 
    122 H122       31.0480   31.6261    7.7179 H         1 UNK         0.0811 
    123 H123       30.0496   30.2080    7.4277 H         1 UNK         0.0811 
    124 H124       29.7331   31.6929    6.5452 H         1 UNK         0.0811 
    125 H125       31.4367   28.0800    6.0283 H         1 UNK         0.3204 
    126 H126       32.6809   26.3696    6.6777 H         1 UNK         0.0748 
    127 H127       33.8168   26.5252    8.8753 H         1 UNK         0.0771 
    128 H128       33.7610   28.2810    8.8182 H         1 UNK         0.0771 
    129 H129       32.2683   27.3507    8.9331 H         1 UNK         0.0771 
    130 H130       33.6466   27.2980    4.4396 H         1 UNK         0.2980 
    131 H131       36.2865   28.2429    4.4265 H         1 UNK         0.0545 
    132 H132       35.4037   24.9325    5.0399 H         1 UNK         0.3459 
    133 H133       36.9735   24.2612    4.6760 H         1 UNK         0.3459 
    134 H134       34.9623   26.8162    2.0809 H         1 UNK         0.0616 
    135 H135       36.2316   27.9991    2.0238 H         1 UNK         0.0616 
    136 H136       32.0985   28.9646    1.1415 H         1 UNK         0.0634 
    137 H137       33.0760   27.5610    0.8289 H         1 UNK         0.0634 
@<TRIPOS>BOND
     1    1    2 1    
     2    1   72 1    
     3    1   73 1    
     4    1   74 1    
     5    2    3 2    
     6    2    4 am   BACKBONE|DICT|INTERRES
     7    4    5 1    
     8    4   75 1    
     9    5    6 1    
    10    5   35 1    
    11    5   76 1    
    12    6    7 1    
    13    6   77 1    
    14    6   78 1    
    15    7    8 1    
    16    8    9 1    
    17    8   79 1    
    18    8   80 1    
    19    9   10 ar   
    20    9   14 ar   
    21   10   11 ar   
    22   10   81 1    
    23   11   12 ar   
    24   11   71 1    
    25   12   13 ar   
    26   12   82 1    
    27   13   14 ar   
    28   13   15 1    
    29   14   83 1    
    30   15   16 1    
    31   15   84 1    
    32   15   85 1    
    33   16   17 1    
    34   17   18 1    
    35   17   86 1    
    36   17   87 1    
    37   18   19 1    
    38   18   37 1    
    39   18   88 1    
    40   19   20 am   BACKBONE|DICT|INTERRES
    41   19   89 1    
    42   20   21 2    
    43   20   22 1    
    44   22   23 1    
    45   22   24 1    
    46   22   90 1    
    47   23   91 1    
    48   23   92 1    
    49   23   93 1    
    50   24   25 am   BACKBONE|DICT|INTERRES
    51   24   94 1    
    52   25   26 2    
    53   25   27 1    
    54   27   28 1    
    55   27   29 1    
    56   27   95 1    
    57   28   96 1    
    58   28   97 1    
    59   28   98 1    
    60   29   30 am   BACKBONE|DICT|INTERRES
    61   29   99 1    
    62   30   31 2    
    63   30   32 1    
    64   32   33 1    
    65   32   34 1    
    66   32  100 1    
    67   33  101 1    
    68   33  102 1    
    69   33  103 1    
    70   34   35 am   BACKBONE|DICT|INTERRES
    71   34  104 1    
    72   35   36 2    
    73   37   38 2    
    74   37   39 am   BACKBONE|DICT|INTERRES
    75   39   40 1    
    76   39  105 1    
    77   40   41 1    
    78   40   42 1    
    79   40  106 1    
    80   41  107 1    
    81   41  108 1    
    82   41  109 1    
    83   42   43 2    
    84   42   44 am   BACKBONE|DICT|INTERRES
    85   44   45 1    
    86   44  110 1    
    87   45   46 1    
    88   45   47 1    
    89   45  111 1    
    90   46  112 1    
    91   46  113 1    
    92   46  114 1    
    93   47   48 2    
    94   47   49 am   BACKBONE|DICT|INTERRES
    95   49   50 1    
    96   49  115 1    
    97   50   51 1    
    98   50   52 1    
    99   50  116 1    
   100   51  117 1    
   101   51  118 1    
   102   51  119 1    
   103   52   53 2    
   104   52   54 am   BACKBONE|DICT|INTERRES
   105   54   55 1    
   106   54  120 1    
   107   55   56 1    
   108   55   57 1    
   109   55  121 1    
   110   56  122 1    
   111   56  123 1    
   112   56  124 1    
   113   57   58 2    
   114   57   59 am   BACKBONE|DICT|INTERRES
   115   59   60 1    
   116   59  125 1    
   117   60   61 1    
   118   60   62 1    
   119   60  126 1    
   120   61  127 1    
   121   61  128 1    
   122   61  129 1    
   123   62   63 2    
   124   62   64 am   BACKBONE|DICT|INTERRES
   125   64   65 1    
   126   64  130 1    
   127   65   66 1    
   128   65   69 1    
   129   65  131 1    
   130   66   67 am   BACKBONE|DICT|INTERRES
   131   66   68 2    
   132   67  132 1    
   133   67  133 1    
   134   69   70 1    
   135   69  134 1    
   136   69  135 1    
   137   70   71 1    
   138   71  136 1    
   139   71  137 1    
@<TRIPOS>SUBSTRUCTURE
     1 UNK         1 GROUP             0       ****    0 ROOT    
