@<TRIPOS>MOLECULE
3R136
137   139    1
SMALL
USER_CHARGES


@<TRIPOS>ATOM
      1 CA         31.1077   27.3182    2.5834 C.3       0 UNK        -0.1979 
      2 C          30.2215   26.2907    3.2694 C.2       0 UNK         0.4864 
      3 O          29.7160   26.5545    4.3617 O.2       0 UNK        -0.5359 
      4 N          30.0244   25.1258    2.6398 N.am      1 UNK        -0.4318 
      5 CA         29.1592   24.0427    3.1171 C.3       1 UNK         0.0824 
      6 C6         29.5232   22.6766    2.4816 C.3       12 UNK        -0.0944 
      7 S7         31.1880   22.1001    2.9452 S.3       12 UNK        -0.2672 
      8 C8         32.0056   21.9769    1.3223 C.3       12 UNK         0.0333 
      9 C9         32.4974   23.3285    0.8254 C.ar      12 UNK        -0.0807 
     10 C10        33.5699   23.9467    1.4680 C.ar      12 UNK        -0.0894 
     11 C11        34.0644   25.1702    1.0141 C.ar      12 UNK        -0.0804 
     12 C12        33.4916   25.7684   -0.1143 C.ar      12 UNK        -0.0824 
     13 C13        32.4203   25.1553   -0.7808 C.ar      12 UNK        -0.0762 
     14 C14        31.9249   23.9386   -0.2945 C.ar      12 UNK        -0.0782 
     15 C15        31.8212   25.7182   -2.0720 C.3       12 UNK         0.0230 
     16 S16        32.0306   27.5109   -2.3600 S.3       12 UNK        -0.2608 
     17 C17        30.9237   28.2657   -1.1232 C.3       12 UNK        -0.0989 
     18 CA         29.4974   28.5512   -1.6843 C.3       5 UNK         0.0716 
     19 N          28.7081   27.3273   -1.9002 N.am      5 UNK        -0.4135 
     20 C          28.3027   26.4753   -0.9482 C.2       4 UNK         0.5031 
     21 O          28.5879   26.5880    0.2451 O.2       4 UNK        -0.5229 
     22 CA         27.3923   25.3257   -1.3993 C.3       4 UNK         0.0329 
     23 CB         28.1182   23.9755   -1.3210 C.3       4 UNK        -0.2001 
     24 N          26.2007   25.2908   -0.5539 N.am      4 UNK        -0.4303 
     25 C          25.1895   26.1656   -0.6563 C.2       3 UNK         0.5044 
     26 O          25.1397   27.0520   -1.5109 O.2       3 UNK        -0.5152 
     27 CA         24.0526   26.0504    0.3742 C.3       3 UNK         0.0319 
     28 CB         22.9811   25.0611   -0.1104 C.3       3 UNK        -0.2001 
     29 N          24.5234   25.6484    1.7008 N.am      3 UNK        -0.4354 
     30 C          25.3033   26.4038    2.4858 C.2       2 UNK         0.4964 
     31 O          25.6514   27.5469    2.1980 O.2       2 UNK        -0.5047 
     32 CA         25.7756   25.7916    3.8160 C.3       2 UNK         0.0288 
     33 CB         24.8476   24.6789    4.3555 C.3       2 UNK        -0.2113 
     34 N          27.1616   25.3180    3.7392 N.am      2 UNK        -0.4145 
     35 C          27.6689   24.3950    2.9083 C.2       1 UNK         0.5006 
     36 O          27.0167   23.8296    2.0254 O.2       1 UNK        -0.5103 
     37 C          28.7325   29.6283   -0.8682 C.2       5 UNK         0.5055 
     38 O          29.3490   30.5974   -0.4227 O.2       5 UNK        -0.5220 
     39 N          27.4092   29.4578   -0.6878 N.am      6 UNK        -0.4450 
     40 CA         26.4706   30.3369    0.0281 C.3       6 UNK         0.0367 
     41 CB         26.2005   31.6051   -0.8084 C.3       6 UNK        -0.1929 
     42 C          26.8871   30.6731    1.4773 C.2       6 UNK         0.5070 
     43 O          26.5302   31.7388    1.9816 O.2       6 UNK        -0.5237 
     44 N          27.6731   29.7803    2.0986 N.am      7 UNK        -0.4739 
     45 CA         28.3288   29.8990    3.4074 C.3       7 UNK         0.0276 
     46 CB         27.2885   29.9966    4.5415 C.3       7 UNK        -0.1927 
     47 C          29.3847   31.0211    3.5005 C.2       7 UNK         0.5013 
     48 O          29.9387   31.2258    4.5835 O.2       7 UNK        -0.5193 
     49 N          29.6894   31.7067    2.3872 N.am      8 UNK        -0.4253 
     50 CA         30.5486   32.8934    2.2986 C.3       8 UNK         0.0242 
     51 CB         30.1855   33.6704    1.0192 C.3       8 UNK        -0.2000 
     52 C          32.0495   32.5541    2.3826 C.2       8 UNK         0.4948 
     53 O          32.8298   32.9477    1.5136 O.2       8 UNK        -0.5275 
     54 N          32.4105   31.8231    3.4393 N.am      9 UNK        -0.4246 
     55 CA         33.7426   31.3163    3.7661 C.3       9 UNK         0.0261 
     56 CB         34.2528   30.3534    2.6744 C.3       9 UNK        -0.1959 
     57 C          33.7618   30.6195    5.1378 C.2       9 UNK         0.5033 
     58 O          34.8363   30.5364    5.7335 O.2       9 UNK        -0.5390 
     59 N          32.5989   30.1367    5.6176 N.am      10 UNK        -0.4215 
     60 CA         32.3948   29.4203    6.8866 C.3       10 UNK         0.0240 
     61 CB         32.5692   30.3780    8.0851 C.3       10 UNK        -0.1982 
     62 C          33.2473   28.1388    7.0072 C.2       10 UNK         0.4970 
     63 O          33.8381   27.8832    8.0587 O.2       10 UNK        -0.4916 
     64 N          33.3085   27.3735    5.9107 N.am      11 UNK        -0.4279 
     65 CA         34.0736   26.1260    5.7762 C.3       11 UNK         0.1003 
     66 C          33.5941   25.0054    6.7402 C.2       11 UNK         0.5709 
     67 N          34.5013   24.1530    7.1980 N.am      11 UNK        -0.7358 
     68 O          32.4091   24.8771    7.0427 O.2       11 UNK        -0.4999 
     69 C69        34.0703   25.6178    4.3114 C.3       12 UNK        -0.0954 
     70 S70        34.7025   26.8548    3.1275 S.3       12 UNK        -0.2268 
     71 C71        35.2397   25.8201    1.7305 C.3       12 UNK         0.0203 
     72 H72        31.6985   27.8654    3.3156 H         1 UNK         0.0888 
     73 H73        31.7943   26.8444    1.8841 H         1 UNK         0.0888 
     74 H74        30.4966   28.0339    2.0356 H         1 UNK         0.0888 
     75 H75        30.4429   24.9791    1.7325 H         1 UNK         0.3017 
     76 H76        29.3083   23.9423    4.1948 H         1 UNK         0.0873 
     77 H77        29.4374   22.7173    1.3967 H         1 UNK         0.0745 
     78 H78        28.8200   21.9080    2.8083 H         1 UNK         0.0745 
     79 H79        32.8607   21.3058    1.4163 H         1 UNK         0.0705 
     80 H80        31.3341   21.5080    0.6014 H         1 UNK         0.0705 
     81 H81        34.0214   23.4671    2.3253 H         1 UNK         0.1334 
     82 H82        33.8983   26.7011   -0.4789 H         1 UNK         0.1417 
     83 H83        31.1142   23.4444   -0.8119 H         1 UNK         0.1562 
     84 H84        30.7613   25.4788   -2.1282 H         1 UNK         0.0748 
     85 H85        32.2887   25.1943   -2.9066 H         1 UNK         0.0748 
     86 H86        31.4139   29.1880   -0.8062 H         1 UNK         0.0940 
     87 H87        30.8876   27.6339   -0.2384 H         1 UNK         0.0940 
     88 H88        29.6184   29.0019   -2.6706 H         1 UNK         0.0703 
     89 H89        28.4168   27.1639   -2.8541 H         1 UNK         0.3081 
     90 H90        27.0807   25.4858   -2.4339 H         1 UNK         0.0719 
     91 H91        28.5305   23.8050   -0.3285 H         1 UNK         0.0809 
     92 H92        27.4468   23.1482   -1.5513 H         1 UNK         0.0809 
     93 H93        28.9408   23.9307   -2.0343 H         1 UNK         0.0809 
     94 H94        26.2308   24.6673    0.2458 H         1 UNK         0.2990 
     95 H95        23.5903   27.0357    0.4659 H         1 UNK         0.0690 
     96 H96        22.5976   25.3513   -1.0897 H         1 UNK         0.0788 
     97 H97        22.1316   25.0302    0.5722 H         1 UNK         0.0788 
     98 H98        23.3766   24.0486   -0.2020 H         1 UNK         0.0788 
     99 H99        24.3070   24.7096    2.0034 H         1 UNK         0.2993 
    100 H100       25.7673   26.6059    4.5423 H         1 UNK         0.0949 
    101 H101       25.1458   24.3795    5.3604 H         1 UNK         0.0767 
    102 H102       23.8150   25.0252    4.4198 H         1 UNK         0.0767 
    103 H103       24.8594   23.7839    3.7327 H         1 UNK         0.0767 
    104 H104       27.8282   25.7970    4.3379 H         1 UNK         0.3013 
    105 H105       26.9913   28.6215   -1.0744 H         1 UNK         0.3121 
    106 H106       25.5348   29.7812    0.1077 H         1 UNK         0.0774 
    107 H107       25.4089   32.2095   -0.3639 H         1 UNK         0.0815 
    108 H108       27.0886   32.2340   -0.8820 H         1 UNK         0.0815 
    109 H109       25.8821   31.3535   -1.8199 H         1 UNK         0.0815 
    110 H110       27.8548   28.9180    1.6004 H         1 UNK         0.2987 
    111 H111       28.8712   28.9671    3.5549 H         1 UNK         0.0949 
    112 H112       26.7472   30.9426    4.5174 H         1 UNK         0.0806 
    113 H113       26.5586   29.1897    4.4781 H         1 UNK         0.0806 
    114 H114       27.7674   29.9227    5.5187 H         1 UNK         0.0806 
    115 H115       29.2738   31.4003    1.5135 H         1 UNK         0.3010 
    116 H116       30.3226   33.5390    3.1500 H         1 UNK         0.0829 
    117 H117       29.1271   33.9312    1.0002 H         1 UNK         0.0813 
    118 H118       30.7497   34.6015    0.9516 H         1 UNK         0.0813 
    119 H119       30.4029   33.0900    0.1216 H         1 UNK         0.0813 
    120 H120       31.6676   31.6300    4.1054 H         1 UNK         0.3038 
    121 H121       34.4203   32.1701    3.8273 H         1 UNK         0.0769 
    122 H122       35.1944   29.8882    2.9696 H         1 UNK         0.0811 
    123 H123       34.4407   30.8702    1.7339 H         1 UNK         0.0811 
    124 H124       33.5372   29.5552    2.4774 H         1 UNK         0.0811 
    125 H125       31.7541   30.2614    5.0746 H         1 UNK         0.3204 
    126 H126       31.3553   29.0883    6.8842 H         1 UNK         0.0748 
    127 H127       33.5985   30.7254    8.1799 H         1 UNK         0.0771 
    128 H128       31.9273   31.2537    7.9883 H         1 UNK         0.0771 
    129 H129       32.3042   29.8857    9.0217 H         1 UNK         0.0771 
    130 H130       32.7924   27.6572    5.0946 H         1 UNK         0.2980 
    131 H131       35.1044   26.3677    6.0433 H         1 UNK         0.0545 
    132 H132       34.2076   23.4102    7.8127 H         1 UNK         0.3459 
    133 H133       35.4740   24.2408    6.9483 H         1 UNK         0.3459 
    134 H134       34.6893   24.7226    4.2313 H         1 UNK         0.0616 
    135 H135       33.0633   25.3278    4.0062 H         1 UNK         0.0616 
    136 H136       35.8018   26.4426    1.0329 H         1 UNK         0.0634 
    137 H137       35.9359   25.0591    2.0865 H         1 UNK         0.0634 
@<TRIPOS>BOND
     1    1    2 1    
     2    1   72 1    
     3    1   73 1    
     4    1   74 1    
     5    2    3 2    
     6    2    4 am   BACKBONE|DICT|INTERRES
     7    4    5 1    
     8    4   75 1    
     9    5    6 1    
    10    5   35 1    
    11    5   76 1    
    12    6    7 1    
    13    6   77 1    
    14    6   78 1    
    15    7    8 1    
    16    8    9 1    
    17    8   79 1    
    18    8   80 1    
    19    9   10 ar   
    20    9   14 ar   
    21   10   11 ar   
    22   10   81 1    
    23   11   12 ar   
    24   11   71 1    
    25   12   13 ar   
    26   12   82 1    
    27   13   14 ar   
    28   13   15 1    
    29   14   83 1    
    30   15   16 1    
    31   15   84 1    
    32   15   85 1    
    33   16   17 1    
    34   17   18 1    
    35   17   86 1    
    36   17   87 1    
    37   18   19 1    
    38   18   37 1    
    39   18   88 1    
    40   19   20 am   BACKBONE|DICT|INTERRES
    41   19   89 1    
    42   20   21 2    
    43   20   22 1    
    44   22   23 1    
    45   22   24 1    
    46   22   90 1    
    47   23   91 1    
    48   23   92 1    
    49   23   93 1    
    50   24   25 am   BACKBONE|DICT|INTERRES
    51   24   94 1    
    52   25   26 2    
    53   25   27 1    
    54   27   28 1    
    55   27   29 1    
    56   27   95 1    
    57   28   96 1    
    58   28   97 1    
    59   28   98 1    
    60   29   30 am   BACKBONE|DICT|INTERRES
    61   29   99 1    
    62   30   31 2    
    63   30   32 1    
    64   32   33 1    
    65   32   34 1    
    66   32  100 1    
    67   33  101 1    
    68   33  102 1    
    69   33  103 1    
    70   34   35 am   BACKBONE|DICT|INTERRES
    71   34  104 1    
    72   35   36 2    
    73   37   38 2    
    74   37   39 am   BACKBONE|DICT|INTERRES
    75   39   40 1    
    76   39  105 1    
    77   40   41 1    
    78   40   42 1    
    79   40  106 1    
    80   41  107 1    
    81   41  108 1    
    82   41  109 1    
    83   42   43 2    
    84   42   44 am   BACKBONE|DICT|INTERRES
    85   44   45 1    
    86   44  110 1    
    87   45   46 1    
    88   45   47 1    
    89   45  111 1    
    90   46  112 1    
    91   46  113 1    
    92   46  114 1    
    93   47   48 2    
    94   47   49 am   BACKBONE|DICT|INTERRES
    95   49   50 1    
    96   49  115 1    
    97   50   51 1    
    98   50   52 1    
    99   50  116 1    
   100   51  117 1    
   101   51  118 1    
   102   51  119 1    
   103   52   53 2    
   104   52   54 am   BACKBONE|DICT|INTERRES
   105   54   55 1    
   106   54  120 1    
   107   55   56 1    
   108   55   57 1    
   109   55  121 1    
   110   56  122 1    
   111   56  123 1    
   112   56  124 1    
   113   57   58 2    
   114   57   59 am   BACKBONE|DICT|INTERRES
   115   59   60 1    
   116   59  125 1    
   117   60   61 1    
   118   60   62 1    
   119   60  126 1    
   120   61  127 1    
   121   61  128 1    
   122   61  129 1    
   123   62   63 2    
   124   62   64 am   BACKBONE|DICT|INTERRES
   125   64   65 1    
   126   64  130 1    
   127   65   66 1    
   128   65   69 1    
   129   65  131 1    
   130   66   67 am   BACKBONE|DICT|INTERRES
   131   66   68 2    
   132   67  132 1    
   133   67  133 1    
   134   69   70 1    
   135   69  134 1    
   136   69  135 1    
   137   70   71 1    
   138   71  136 1    
   139   71  137 1    
@<TRIPOS>SUBSTRUCTURE
     1 UNK         1 GROUP             0       ****    0 ROOT    
