@<TRIPOS>MOLECULE
3R136
137   139    1
SMALL
USER_CHARGES


@<TRIPOS>ATOM
      1 CA         26.3086   22.4810    0.6546 C.3       0 UNK        -0.1979 
      2 C          27.4843   22.2774   -0.2880 C.2       0 UNK         0.4864 
      3 O          28.0145   21.1694   -0.3848 O.2       0 UNK        -0.5359 
      4 N          27.8825   23.3418   -0.9878 N.am      1 UNK        -0.4318 
      5 CA         28.9495   23.3482   -1.9868 C.3       1 UNK         0.0824 
      6 C6         30.3563   23.6084   -1.3754 C.3       12 UNK        -0.0944 
      7 S7         30.5068   25.1512   -0.4060 S.3       12 UNK        -0.2672 
      8 C8         32.0285   24.8335    0.5465 C.3       12 UNK         0.0333 
      9 C9         31.7622   24.5206    2.0159 C.ar      12 UNK        -0.0807 
     10 C10        32.4871   25.1886    3.0095 C.ar      12 UNK        -0.0894 
     11 C11        32.2827   24.9039    4.3668 C.ar      12 UNK        -0.0804 
     12 C12        31.3405   23.9301    4.7160 C.ar      12 UNK        -0.0824 
     13 C13        30.6100   23.2507    3.7355 C.ar      12 UNK        -0.0762 
     14 C14        30.8296   23.5466    2.3879 C.ar      12 UNK        -0.0782 
     15 C15        29.5949   22.1842    4.1296 C.3       12 UNK         0.0230 
     16 S16        27.8740   22.7271    3.8672 S.3       12 UNK        -0.2608 
     17 C17        27.7749   24.1860    4.9525 C.3       12 UNK        -0.0989 
     18 CA         27.8946   25.4972    4.1392 C.3       5 UNK         0.0716 
     19 N          26.7016   25.7573    3.3264 N.am      5 UNK        -0.4135 
     20 C          26.5436   26.7969    2.4955 C.2       4 UNK         0.5031 
     21 O          27.3905   27.6772    2.3147 O.2       4 UNK        -0.5229 
     22 CA         25.1880   26.8843    1.7712 C.3       4 UNK         0.0329 
     23 CB         24.1975   27.7249    2.5930 C.3       4 UNK        -0.2001 
     24 N          25.3164   27.4688    0.4341 N.am      4 UNK        -0.4303 
     25 C          25.9804   26.8982   -0.5783 C.2       3 UNK         0.5044 
     26 O          26.4784   25.7694   -0.5155 O.2       3 UNK        -0.5152 
     27 CA         26.1334   27.7132   -1.8740 C.3       3 UNK         0.0319 
     28 CB         26.1707   29.2428   -1.6637 C.3       3 UNK        -0.2001 
     29 N          27.3553   27.2504   -2.5199 N.am      3 UNK        -0.4354 
     30 C          27.6283   27.2532   -3.8281 C.2       2 UNK         0.4964 
     31 O          26.9304   27.8061   -4.6787 O.2       2 UNK        -0.5047 
     32 CA         28.8891   26.4781   -4.2618 C.3       2 UNK         0.0288 
     33 CB         30.0857   27.4328   -4.4058 C.3       2 UNK        -0.2113 
     34 N          29.2456   25.3964   -3.3341 N.am      2 UNK        -0.4145 
     35 C          28.5166   24.2900   -3.1261 C.2       1 UNK         0.5006 
     36 O          27.5125   24.0076   -3.7841 O.2       1 UNK        -0.5103 
     37 C          28.2270   26.6773    5.0691 C.2       5 UNK         0.5055 
     38 O          27.3204   27.3345    5.5879 O.2       5 UNK        -0.5220 
     39 N          29.5318   26.9251    5.2335 N.am      6 UNK        -0.4450 
     40 CA         30.1629   28.0600    5.9128 C.3       6 UNK         0.0367 
     41 CB         29.7336   28.1942    7.3863 C.3       6 UNK        -0.1929 
     42 C          30.0153   29.3809    5.1450 C.2       6 UNK         0.5070 
     43 O          31.0249   30.0364    4.8913 O.2       6 UNK        -0.5237 
     44 N          28.7797   29.7318    4.7697 N.am      7 UNK        -0.4739 
     45 CA         28.4126   30.9636    4.0686 C.3       7 UNK         0.0276 
     46 CB         26.8818   31.0418    3.9556 C.3       7 UNK        -0.1927 
     47 C          29.0606   31.1155    2.6826 C.2       7 UNK         0.5013 
     48 O          29.4558   32.2267    2.3296 O.2       7 UNK        -0.5193 
     49 N          29.1600   30.0089    1.9313 N.am      8 UNK        -0.4253 
     50 CA         29.7107   29.9601    0.5730 C.3       8 UNK         0.0242 
     51 CB         29.5890   28.5294    0.0300 C.3       8 UNK        -0.2000 
     52 C          31.1728   30.4209    0.4620 C.2       8 UNK         0.4948 
     53 O          31.5038   31.1543   -0.4710 O.2       8 UNK        -0.5275 
     54 N          32.0155   29.9587    1.3947 N.am      9 UNK        -0.4246 
     55 CA         33.4654   30.1743    1.3781 C.3       9 UNK         0.0261 
     56 CB         34.1621   28.8055    1.4669 C.3       9 UNK        -0.1959 
     57 C          33.9556   31.1115    2.4950 C.2       9 UNK         0.5033 
     58 O          35.1448   31.4327    2.5064 O.2       9 UNK        -0.5390 
     59 N          33.0607   31.5220    3.4086 N.am      10 UNK        -0.4215 
     60 CA         33.3281   32.2926    4.6305 C.3       10 UNK         0.0240 
     61 CB         33.8115   33.7215    4.2996 C.3       10 UNK        -0.1982 
     62 C          34.2695   31.5274    5.5810 C.2       10 UNK         0.4970 
     63 O          35.3063   32.0571    5.9869 O.2       10 UNK        -0.4916 
     64 N          33.8998   30.2736    5.8769 N.am      11 UNK        -0.4279 
     65 CA         34.6689   29.3358    6.7118 C.3       11 UNK         0.1003 
     66 C          34.8696   29.8414    8.1676 C.2       11 UNK         0.5709 
     67 N          36.0251   29.5789    8.7633 N.am      11 UNK        -0.7358 
     68 O          33.9723   30.4252    8.7735 O.2       11 UNK        -0.4999 
     69 C69        34.0455   27.9147    6.7241 C.3       12 UNK        -0.0954 
     70 S70        33.7890   27.2151    5.0590 S.3       12 UNK        -0.2268 
     71 C71        33.0778   25.5864    5.4848 C.3       12 UNK         0.0203 
     72 H72        26.3413   23.4695    1.1130 H         1 UNK         0.0888 
     73 H73        25.3690   22.3823    0.1121 H         1 UNK         0.0888 
     74 H74        26.3224   21.7382    1.4516 H         1 UNK         0.0888 
     75 H75        27.3883   24.2264   -0.8697 H         1 UNK         0.3017 
     76 H76        28.9861   22.3607   -2.4526 H         1 UNK         0.0873 
     77 H77        30.6112   22.7709   -0.7245 H         1 UNK         0.0745 
     78 H78        31.1186   23.6070   -2.1568 H         1 UNK         0.0745 
     79 H79        32.5912   24.0123    0.1008 H         1 UNK         0.0705 
     80 H80        32.6619   25.7174    0.4573 H         1 UNK         0.0705 
     81 H81        33.2259   25.9200    2.7156 H         1 UNK         0.1334 
     82 H82        31.1825   23.6910    5.7593 H         1 UNK         0.1417 
     83 H83        30.2663   23.0197    1.6298 H         1 UNK         0.1562 
     84 H84        29.7229   21.8916    5.1730 H         1 UNK         0.0748 
     85 H85        29.7725   21.2843    3.5388 H         1 UNK         0.0748 
     86 H86        28.5575   24.1093    5.7100 H         1 UNK         0.0940 
     87 H87        26.8316   24.1569    5.5014 H         1 UNK         0.0940 
     88 H88        28.7237   25.3994    3.4348 H         1 UNK         0.0703 
     89 H89        25.9448   25.0995    3.4354 H         1 UNK         0.3081 
     90 H90        24.7841   25.8756    1.6595 H         1 UNK         0.0719 
     91 H91        24.5421   28.7529    2.7109 H         1 UNK         0.0809 
     92 H92        23.2138   27.7518    2.1238 H         1 UNK         0.0809 
     93 H93        24.0667   27.3103    3.5936 H         1 UNK         0.0809 
     94 H94        24.9714   28.4095    0.3162 H         1 UNK         0.2990 
     95 H95        25.2838   27.4623   -2.5122 H         1 UNK         0.0690 
     96 H96        26.3899   29.7641   -2.5957 H         1 UNK         0.0788 
     97 H97        26.9249   29.5403   -0.9358 H         1 UNK         0.0788 
     98 H98        25.2084   29.6184   -1.3149 H         1 UNK         0.0788 
     99 H99        27.9563   26.7116   -1.9104 H         1 UNK         0.2993 
    100 H100       28.6804   26.0335   -5.2373 H         1 UNK         0.0949 
    101 H101       29.8605   28.2369   -5.1080 H         1 UNK         0.0767 
    102 H102       30.3513   27.8957   -3.4546 H         1 UNK         0.0767 
    103 H103       30.9657   26.9118   -4.7835 H         1 UNK         0.0767 
    104 H104       30.0413   25.5534   -2.7285 H         1 UNK         0.3013 
    105 H105       30.1796   26.3253    4.7392 H         1 UNK         0.3121 
    106 H106       31.2230   27.8317    5.9173 H         1 UNK         0.0774 
    107 H107       30.3241   28.9608    7.8898 H         1 UNK         0.0815 
    108 H108       28.6861   28.4778    7.4893 H         1 UNK         0.0815 
    109 H109       29.8846   27.2611    7.9289 H         1 UNK         0.0815 
    110 H110       28.0274   29.0900    5.0028 H         1 UNK         0.2987 
    111 H111       28.7552   31.8009    4.6805 H         1 UNK         0.0949 
    112 H112       26.4096   31.0328    4.9381 H         1 UNK         0.0806 
    113 H113       26.4790   30.2060    3.3822 H         1 UNK         0.0806 
    114 H114       26.5722   31.9608    3.4559 H         1 UNK         0.0806 
    115 H115       28.7280   29.1550    2.2759 H         1 UNK         0.3010 
    116 H116       29.1053   30.6207   -0.0509 H         1 UNK         0.0829 
    117 H117       28.5562   28.1907    0.0168 H         1 UNK         0.0813 
    118 H118       29.9686   28.4580   -0.9899 H         1 UNK         0.0813 
    119 H119       30.1531   27.8263    0.6430 H         1 UNK         0.0813 
    120 H120       31.6464   29.3668    2.1259 H         1 UNK         0.3038 
    121 H121       33.7696   30.6362    0.4364 H         1 UNK         0.0769 
    122 H122       33.8790   28.1623    0.6334 H         1 UNK         0.0811 
    123 H123       33.9100   28.2875    2.3903 H         1 UNK         0.0811 
    124 H124       35.2474   28.9118    1.4381 H         1 UNK         0.0811 
    125 H125       32.1158   31.1653    3.3390 H         1 UNK         0.3204 
    126 H126       32.3743   32.3860    5.1520 H         1 UNK         0.0748 
    127 H127       33.1083   34.2345    3.6436 H         1 UNK         0.0771 
    128 H128       33.9039   34.3193    5.2072 H         1 UNK         0.0771 
    129 H129       34.7866   33.7219    3.8118 H         1 UNK         0.0771 
    130 H130       33.0138   29.9383    5.5175 H         1 UNK         0.2980 
    131 H131       35.6555   29.2589    6.2506 H         1 UNK         0.0545 
    132 H132       36.1665   29.8845    9.7135 H         1 UNK         0.3459 
    133 H133       36.7623   29.0892    8.2802 H         1 UNK         0.3459 
    134 H134       34.6900   27.2273    7.2758 H         1 UNK         0.0616 
    135 H135       33.0908   27.9260    7.2524 H         1 UNK         0.0616 
    136 H136       32.4319   25.7086    6.3556 H         1 UNK         0.0634 
    137 H137       33.8884   24.9249    5.7927 H         1 UNK         0.0634 
@<TRIPOS>BOND
     1    1    2 1    
     2    1   72 1    
     3    1   73 1    
     4    1   74 1    
     5    2    3 2    
     6    2    4 am   BACKBONE|DICT|INTERRES
     7    4    5 1    
     8    4   75 1    
     9    5    6 1    
    10    5   35 1    
    11    5   76 1    
    12    6    7 1    
    13    6   77 1    
    14    6   78 1    
    15    7    8 1    
    16    8    9 1    
    17    8   79 1    
    18    8   80 1    
    19    9   10 ar   
    20    9   14 ar   
    21   10   11 ar   
    22   10   81 1    
    23   11   12 ar   
    24   11   71 1    
    25   12   13 ar   
    26   12   82 1    
    27   13   14 ar   
    28   13   15 1    
    29   14   83 1    
    30   15   16 1    
    31   15   84 1    
    32   15   85 1    
    33   16   17 1    
    34   17   18 1    
    35   17   86 1    
    36   17   87 1    
    37   18   19 1    
    38   18   37 1    
    39   18   88 1    
    40   19   20 am   BACKBONE|DICT|INTERRES
    41   19   89 1    
    42   20   21 2    
    43   20   22 1    
    44   22   23 1    
    45   22   24 1    
    46   22   90 1    
    47   23   91 1    
    48   23   92 1    
    49   23   93 1    
    50   24   25 am   BACKBONE|DICT|INTERRES
    51   24   94 1    
    52   25   26 2    
    53   25   27 1    
    54   27   28 1    
    55   27   29 1    
    56   27   95 1    
    57   28   96 1    
    58   28   97 1    
    59   28   98 1    
    60   29   30 am   BACKBONE|DICT|INTERRES
    61   29   99 1    
    62   30   31 2    
    63   30   32 1    
    64   32   33 1    
    65   32   34 1    
    66   32  100 1    
    67   33  101 1    
    68   33  102 1    
    69   33  103 1    
    70   34   35 am   BACKBONE|DICT|INTERRES
    71   34  104 1    
    72   35   36 2    
    73   37   38 2    
    74   37   39 am   BACKBONE|DICT|INTERRES
    75   39   40 1    
    76   39  105 1    
    77   40   41 1    
    78   40   42 1    
    79   40  106 1    
    80   41  107 1    
    81   41  108 1    
    82   41  109 1    
    83   42   43 2    
    84   42   44 am   BACKBONE|DICT|INTERRES
    85   44   45 1    
    86   44  110 1    
    87   45   46 1    
    88   45   47 1    
    89   45  111 1    
    90   46  112 1    
    91   46  113 1    
    92   46  114 1    
    93   47   48 2    
    94   47   49 am   BACKBONE|DICT|INTERRES
    95   49   50 1    
    96   49  115 1    
    97   50   51 1    
    98   50   52 1    
    99   50  116 1    
   100   51  117 1    
   101   51  118 1    
   102   51  119 1    
   103   52   53 2    
   104   52   54 am   BACKBONE|DICT|INTERRES
   105   54   55 1    
   106   54  120 1    
   107   55   56 1    
   108   55   57 1    
   109   55  121 1    
   110   56  122 1    
   111   56  123 1    
   112   56  124 1    
   113   57   58 2    
   114   57   59 am   BACKBONE|DICT|INTERRES
   115   59   60 1    
   116   59  125 1    
   117   60   61 1    
   118   60   62 1    
   119   60  126 1    
   120   61  127 1    
   121   61  128 1    
   122   61  129 1    
   123   62   63 2    
   124   62   64 am   BACKBONE|DICT|INTERRES
   125   64   65 1    
   126   64  130 1    
   127   65   66 1    
   128   65   69 1    
   129   65  131 1    
   130   66   67 am   BACKBONE|DICT|INTERRES
   131   66   68 2    
   132   67  132 1    
   133   67  133 1    
   134   69   70 1    
   135   69  134 1    
   136   69  135 1    
   137   70   71 1    
   138   71  136 1    
   139   71  137 1    
@<TRIPOS>SUBSTRUCTURE
     1 UNK         1 GROUP             0       ****    0 ROOT    
