@<TRIPOS>MOLECULE
3R136
137   139    1
SMALL
USER_CHARGES


@<TRIPOS>ATOM
      1 CA         27.5317   24.0636   -3.0197 C.3       0 UNK        -0.1979 
      2 C          27.9175   24.2717   -1.5639 C.2       0 UNK         0.4864 
      3 O          27.8236   25.3924   -1.0617 O.2       0 UNK        -0.5359 
      4 N          28.3539   23.2086   -0.8804 N.am      1 UNK        -0.4318 
      5 CA         28.7318   23.2267    0.5355 C.3       1 UNK         0.0824 
      6 C6         29.4916   21.9436    0.9533 C.3       12 UNK        -0.0944 
      7 S7         30.9335   21.6085   -0.1144 S.3       12 UNK        -0.2672 
      8 C8         32.2924   21.4829    1.0914 C.3       12 UNK         0.0333 
      9 C9         32.7514   22.8275    1.6469 C.ar      12 UNK        -0.0807 
     10 C10        32.9611   22.9750    3.0204 C.ar      12 UNK        -0.0894 
     11 C11        33.4895   24.1571    3.5496 C.ar      12 UNK        -0.0804 
     12 C12        33.7797   25.2180    2.6781 C.ar      12 UNK        -0.0824 
     13 C13        33.5694   25.0882    1.2999 C.ar      12 UNK        -0.0762 
     14 C14        33.0555   23.8915    0.7924 C.ar      12 UNK        -0.0782 
     15 C15        33.9717   26.2071    0.3462 C.3       12 UNK         0.0230 
     16 S16        32.9232   27.6858    0.4919 S.3       12 UNK        -0.2608 
     17 C17        31.3431   27.1262   -0.2224 C.3       12 UNK        -0.0989 
     18 CA         30.1710   28.0253    0.2442 C.3       5 UNK         0.0716 
     19 N          29.0424   27.9418   -0.6779 N.am      5 UNK        -0.4135 
     20 C          28.5192   28.9532   -1.3802 C.2       4 UNK         0.5031 
     21 O          29.0133   30.0784   -1.4538 O.2       4 UNK        -0.5229 
     22 CA         27.2054   28.6648   -2.1226 C.3       4 UNK         0.0329 
     23 CB         27.4935   28.0841   -3.5167 C.3       4 UNK        -0.2001 
     24 N          26.3660   27.7276   -1.3739 N.am      4 UNK        -0.4303 
     25 C          25.4113   28.0741   -0.5034 C.2       3 UNK         0.5044 
     26 O          25.0907   29.2365   -0.2562 O.2       3 UNK        -0.5152 
     27 CA         24.7023   26.9237    0.2200 C.3       3 UNK         0.0319 
     28 CB         24.0913   25.9050   -0.7640 C.3       3 UNK        -0.2001 
     29 N          25.6239   26.2644    1.1435 N.am      3 UNK        -0.4354 
     30 C          25.2540   25.5578    2.2206 C.2       2 UNK         0.4964 
     31 O          24.0804   25.3777    2.5509 O.2       2 UNK        -0.5047 
     32 CA         26.3929   24.9694    3.0763 C.3       2 UNK         0.0288 
     33 CB         25.9203   23.9212    4.1069 C.3       2 UNK        -0.2113 
     34 N          27.4967   24.4642    2.2519 N.am      2 UNK        -0.4145 
     35 C          27.4747   23.4262    1.4053 C.2       1 UNK         0.5006 
     36 O          26.5247   22.6496    1.2766 O.2       1 UNK        -0.5103 
     37 C          29.6667   27.6192    1.6403 C.2       5 UNK         0.5055 
     38 O          28.6245   26.9659    1.7470 O.2       5 UNK        -0.5220 
     39 N          30.4063   28.0012    2.6888 N.am      6 UNK        -0.4450 
     40 CA         30.2089   27.6923    4.1135 C.3       6 UNK         0.0367 
     41 CB         30.1876   26.1735    4.3742 C.3       6 UNK        -0.1929 
     42 C          29.0027   28.3898    4.7669 C.2       6 UNK         0.5070 
     43 O          29.1039   28.7970    5.9236 O.2       6 UNK        -0.5237 
     44 N          27.9036   28.5656    4.0212 N.am      7 UNK        -0.4739 
     45 CA         26.7980   29.4645    4.3759 C.3       7 UNK         0.0276 
     46 CB         25.5983   29.1931    3.4560 C.3       7 UNK        -0.1927 
     47 C          27.2230   30.9439    4.2987 C.2       7 UNK         0.5013 
     48 O          26.7291   31.7682    5.0685 O.2       7 UNK        -0.5193 
     49 N          28.1640   31.2282    3.3943 N.am      8 UNK        -0.4253 
     50 CA         28.9347   32.4543    3.2692 C.3       8 UNK         0.0242 
     51 CB         28.1773   33.4735    2.4007 C.3       8 UNK        -0.2000 
     52 C          30.2675   32.0486    2.6285 C.2       8 UNK         0.4948 
     53 O          30.2796   31.0983    1.8421 O.2       8 UNK        -0.5275 
     54 N          31.3412   32.7753    2.9676 N.am      9 UNK        -0.4246 
     55 CA         32.7374   32.5801    2.5436 C.3       9 UNK         0.0261 
     56 CB         32.8710   32.6420    1.0069 C.3       9 UNK        -0.1959 
     57 C          33.3950   31.3017    3.1035 C.2       9 UNK         0.5033 
     58 O          32.7081   30.3530    3.4942 O.2       9 UNK        -0.5390 
     59 N          34.7375   31.3192    3.1324 N.am      10 UNK        -0.4215 
     60 CA         35.6463   30.2662    3.6060 C.3       10 UNK         0.0240 
     61 CB         35.6978   29.0998    2.5957 C.3       10 UNK        -0.1982 
     62 C          35.3198   29.8173    5.0423 C.2       10 UNK         0.4970 
     63 O          35.7291   30.4885    5.9905 O.2       10 UNK        -0.4916 
     64 N          34.5800   28.7102    5.1666 N.am      11 UNK        -0.4279 
     65 CA         34.0398   28.1820    6.4252 C.3       11 UNK         0.1003 
     66 C          32.9391   29.0727    7.0733 C.2       11 UNK         0.5709 
     67 N          32.3057   29.9852    6.3455 N.am      11 UNK        -0.7358 
     68 O          32.6623   28.9325    8.2622 O.2       11 UNK        -0.4999 
     69 C69        33.5240   26.7310    6.2504 C.3       12 UNK        -0.0954 
     70 S70        34.7995   25.5734    5.6591 S.3       12 UNK        -0.2268 
     71 C71        33.7516   24.2027    5.0585 C.3       12 UNK         0.0203 
     72 H72        27.5503   23.0102   -3.2981 H         1 UNK         0.0888 
     73 H73        26.5268   24.4440   -3.2005 H         1 UNK         0.0888 
     74 H74        28.2224   24.5996   -3.6697 H         1 UNK         0.0888 
     75 H75        28.4094   22.3075   -1.3325 H         1 UNK         0.3017 
     76 H76        29.4028   24.0761    0.6863 H         1 UNK         0.0873 
     77 H77        28.8356   21.0719    0.9071 H         1 UNK         0.0745 
     78 H78        29.8188   22.0239    1.9918 H         1 UNK         0.0745 
     79 H79        31.9918   20.8067    1.8934 H         1 UNK         0.0705 
     80 H80        33.1438   21.0106    0.5998 H         1 UNK         0.0705 
     81 H81        32.7474   22.1471    3.6832 H         1 UNK         0.1334 
     82 H82        34.1930   26.1414    3.0553 H         1 UNK         0.1417 
     83 H83        32.9196   23.7736   -0.2742 H         1 UNK         0.1562 
     84 H84        33.9598   25.8640   -0.6896 H         1 UNK         0.0748 
     85 H85        35.0032   26.4933    0.5568 H         1 UNK         0.0748 
     86 H86        31.1628   26.0751    0.0124 H         1 UNK         0.0940 
     87 H87        31.4475   27.1784   -1.3074 H         1 UNK         0.0940 
     88 H88        30.5131   29.0600    0.2970 H         1 UNK         0.0703 
     89 H89        28.5570   27.0471   -0.6755 H         1 UNK         0.3081 
     90 H90        26.6750   29.6109   -2.2514 H         1 UNK         0.0719 
     91 H91        28.0442   27.1448   -3.4585 H         1 UNK         0.0809 
     92 H92        26.5709   27.8986   -4.0669 H         1 UNK         0.0809 
     93 H93        28.0918   28.7766   -4.1104 H         1 UNK         0.0809 
     94 H94        26.6264   26.7466   -1.4391 H         1 UNK         0.2990 
     95 H95        23.8891   27.3686    0.7980 H         1 UNK         0.0690 
     96 H96        23.4761   26.4039   -1.5139 H         1 UNK         0.0788 
     97 H97        23.4507   25.1920   -0.2449 H         1 UNK         0.0788 
     98 H98        24.8573   25.3353   -1.2906 H         1 UNK         0.0788 
     99 H99        26.6143   26.3886    0.9627 H         1 UNK         0.2993 
    100 H100       26.7981   25.8111    3.6395 H         1 UNK         0.0949 
    101 H101       26.7562   23.5329    4.6887 H         1 UNK         0.0767 
    102 H102       25.2126   24.3609    4.8107 H         1 UNK         0.0767 
    103 H103       25.4196   23.0774    3.6316 H         1 UNK         0.0767 
    104 H104       28.2782   25.1092    2.1813 H         1 UNK         0.3013 
    105 H105       31.2006   28.6031    2.4976 H         1 UNK         0.3121 
    106 H106       31.0932   28.0986    4.6036 H         1 UNK         0.0774 
    107 H107       29.2727   25.7083    4.0135 H         1 UNK         0.0815 
    108 H108       30.2501   25.9650    5.4428 H         1 UNK         0.0815 
    109 H109       31.0289   25.6748    3.8942 H         1 UNK         0.0815 
    110 H110       27.9019   28.1510    3.0947 H         1 UNK         0.2987 
    111 H111       26.4990   29.2591    5.4062 H         1 UNK         0.0949 
    112 H112       25.8585   29.3188    2.4047 H         1 UNK         0.0806 
    113 H113       25.2159   28.1825    3.5926 H         1 UNK         0.0806 
    114 H114       24.7771   29.8778    3.6725 H         1 UNK         0.0806 
    115 H115       28.5323   30.4783    2.8214 H         1 UNK         0.3010 
    116 H116       29.1198   32.8689    4.2626 H         1 UNK         0.0829 
    117 H117       27.2177   33.7383    2.8450 H         1 UNK         0.0813 
    118 H118       28.7502   34.3949    2.2903 H         1 UNK         0.0813 
    119 H119       27.9868   33.0838    1.3997 H         1 UNK         0.0813 
    120 H120       31.2053   33.5196    3.6376 H         1 UNK         0.3038 
    121 H121       33.2837   33.4284    2.9595 H         1 UNK         0.0769 
    122 H122       32.3905   33.5322    0.6012 H         1 UNK         0.0811 
    123 H123       33.9178   32.6740    0.7033 H         1 UNK         0.0811 
    124 H124       32.4261   31.7712    0.5237 H         1 UNK         0.0811 
    125 H125       35.1974   32.1632    2.8200 H         1 UNK         0.3204 
    126 H126       36.6428   30.7091    3.6428 H         1 UNK         0.0748 
    127 H127       36.3862   28.3206    2.9261 H         1 UNK         0.0771 
    128 H128       34.7215   28.6403    2.4555 H         1 UNK         0.0771 
    129 H129       36.0416   29.4407    1.6191 H         1 UNK         0.0771 
    130 H130       34.2538   28.2638    4.3242 H         1 UNK         0.2980 
    131 H131       34.8647   28.1549    7.1396 H         1 UNK         0.0545 
    132 H132       31.5848   30.5403    6.7762 H         1 UNK         0.3459 
    133 H133       32.5069   30.0910    5.3547 H         1 UNK         0.3459 
    134 H134       32.6933   26.7120    5.5467 H         1 UNK         0.0616 
    135 H135       33.1388   26.3420    7.1949 H         1 UNK         0.0616 
    136 H136       34.2473   23.2753    5.3495 H         1 UNK         0.0634 
    137 H137       32.7966   24.2116    5.5859 H         1 UNK         0.0634 
@<TRIPOS>BOND
     1    1    2 1    
     2    1   72 1    
     3    1   73 1    
     4    1   74 1    
     5    2    3 2    
     6    2    4 am   BACKBONE|DICT|INTERRES
     7    4    5 1    
     8    4   75 1    
     9    5    6 1    
    10    5   35 1    
    11    5   76 1    
    12    6    7 1    
    13    6   77 1    
    14    6   78 1    
    15    7    8 1    
    16    8    9 1    
    17    8   79 1    
    18    8   80 1    
    19    9   10 ar   
    20    9   14 ar   
    21   10   11 ar   
    22   10   81 1    
    23   11   12 ar   
    24   11   71 1    
    25   12   13 ar   
    26   12   82 1    
    27   13   14 ar   
    28   13   15 1    
    29   14   83 1    
    30   15   16 1    
    31   15   84 1    
    32   15   85 1    
    33   16   17 1    
    34   17   18 1    
    35   17   86 1    
    36   17   87 1    
    37   18   19 1    
    38   18   37 1    
    39   18   88 1    
    40   19   20 am   BACKBONE|DICT|INTERRES
    41   19   89 1    
    42   20   21 2    
    43   20   22 1    
    44   22   23 1    
    45   22   24 1    
    46   22   90 1    
    47   23   91 1    
    48   23   92 1    
    49   23   93 1    
    50   24   25 am   BACKBONE|DICT|INTERRES
    51   24   94 1    
    52   25   26 2    
    53   25   27 1    
    54   27   28 1    
    55   27   29 1    
    56   27   95 1    
    57   28   96 1    
    58   28   97 1    
    59   28   98 1    
    60   29   30 am   BACKBONE|DICT|INTERRES
    61   29   99 1    
    62   30   31 2    
    63   30   32 1    
    64   32   33 1    
    65   32   34 1    
    66   32  100 1    
    67   33  101 1    
    68   33  102 1    
    69   33  103 1    
    70   34   35 am   BACKBONE|DICT|INTERRES
    71   34  104 1    
    72   35   36 2    
    73   37   38 2    
    74   37   39 am   BACKBONE|DICT|INTERRES
    75   39   40 1    
    76   39  105 1    
    77   40   41 1    
    78   40   42 1    
    79   40  106 1    
    80   41  107 1    
    81   41  108 1    
    82   41  109 1    
    83   42   43 2    
    84   42   44 am   BACKBONE|DICT|INTERRES
    85   44   45 1    
    86   44  110 1    
    87   45   46 1    
    88   45   47 1    
    89   45  111 1    
    90   46  112 1    
    91   46  113 1    
    92   46  114 1    
    93   47   48 2    
    94   47   49 am   BACKBONE|DICT|INTERRES
    95   49   50 1    
    96   49  115 1    
    97   50   51 1    
    98   50   52 1    
    99   50  116 1    
   100   51  117 1    
   101   51  118 1    
   102   51  119 1    
   103   52   53 2    
   104   52   54 am   BACKBONE|DICT|INTERRES
   105   54   55 1    
   106   54  120 1    
   107   55   56 1    
   108   55   57 1    
   109   55  121 1    
   110   56  122 1    
   111   56  123 1    
   112   56  124 1    
   113   57   58 2    
   114   57   59 am   BACKBONE|DICT|INTERRES
   115   59   60 1    
   116   59  125 1    
   117   60   61 1    
   118   60   62 1    
   119   60  126 1    
   120   61  127 1    
   121   61  128 1    
   122   61  129 1    
   123   62   63 2    
   124   62   64 am   BACKBONE|DICT|INTERRES
   125   64   65 1    
   126   64  130 1    
   127   65   66 1    
   128   65   69 1    
   129   65  131 1    
   130   66   67 am   BACKBONE|DICT|INTERRES
   131   66   68 2    
   132   67  132 1    
   133   67  133 1    
   134   69   70 1    
   135   69  134 1    
   136   69  135 1    
   137   70   71 1    
   138   71  136 1    
   139   71  137 1    
@<TRIPOS>SUBSTRUCTURE
     1 UNK         1 GROUP             0       ****    0 ROOT    
