@<TRIPOS>MOLECULE
3R136
137   139    1
SMALL
USER_CHARGES


@<TRIPOS>ATOM
      1 CA         26.9878   23.0603    2.9489 C.3       0 UNK        -0.1979 
      2 C          27.2262   21.9290    1.9630 C.2       0 UNK         0.4864 
      3 O          27.1467   20.7580    2.3380 O.2       0 UNK        -0.5359 
      4 N          27.5208   22.2768    0.7092 N.am      1 UNK        -0.4318 
      5 CA         27.7926   21.3458   -0.3832 C.3       1 UNK         0.0824 
      6 C6         29.2571   20.8189   -0.3741 C.3       12 UNK        -0.0944 
      7 S7         30.5351   22.1333   -0.3934 S.3       12 UNK        -0.2672 
      8 C8         31.3481   21.9391    1.2290 C.3       12 UNK         0.0333 
      9 C9         31.2970   23.2173    2.0557 C.ar      12 UNK        -0.0807 
     10 C10        31.9654   24.3620    1.6124 C.ar      12 UNK        -0.0894 
     11 C11        31.9663   25.5262    2.3831 C.ar      12 UNK        -0.0804 
     12 C12        31.3013   25.5381    3.6118 C.ar      12 UNK        -0.0824 
     13 C13        30.6341   24.3994    4.0787 C.ar      12 UNK        -0.0762 
     14 C14        30.6316   23.2444    3.2870 C.ar      12 UNK        -0.0782 
     15 C15        29.9797   24.3594    5.4616 C.3       12 UNK         0.0230 
     16 S16        29.3695   25.9660    6.0889 S.3       12 UNK        -0.2608 
     17 C17        27.8813   26.2360    5.0714 C.3       12 UNK        -0.0989 
     18 CA         28.0360   27.3971    4.0540 C.3       5 UNK         0.0716 
     19 N          27.1714   27.1851    2.8843 N.am      5 UNK        -0.4135 
     20 C          27.1194   27.9637    1.7968 C.2       4 UNK         0.5031 
     21 O          27.7120   29.0381    1.6827 O.2       4 UNK        -0.5229 
     22 CA         26.2614   27.4616    0.6300 C.3       4 UNK         0.0329 
     23 CB         25.1847   28.4918    0.2498 C.3       4 UNK        -0.2001 
     24 N          27.1346   27.2190   -0.5156 N.am      4 UNK        -0.4303 
     25 C          27.8365   26.0947   -0.6965 C.2       3 UNK         0.5044 
     26 O          27.7339   25.0932    0.0193 O.2       3 UNK        -0.5152 
     27 CA         28.8547   26.1057   -1.8454 C.3       3 UNK         0.0319 
     28 CB         30.2619   26.3971   -1.3011 C.3       3 UNK        -0.2001 
     29 N          28.8606   24.7995   -2.4943 N.am      3 UNK        -0.4354 
     30 C          28.0773   24.4507   -3.5246 C.2       2 UNK         0.4964 
     31 O          27.3872   25.2436   -4.1661 O.2       2 UNK        -0.5047 
     32 CA         28.0326   22.9510   -3.8759 C.3       2 UNK         0.0288 
     33 CB         29.1068   22.6035   -4.9192 C.3       2 UNK        -0.2113 
     34 N          28.2130   22.1079   -2.6905 N.am      2 UNK        -0.4145 
     35 C          27.3273   22.0180   -1.6878 C.2       1 UNK         0.5006 
     36 O          26.1819   22.4716   -1.7540 O.2       1 UNK        -0.5103 
     37 C          27.8433   28.7728    4.7328 C.2       5 UNK         0.5055 
     38 O          28.8163   29.3669    5.1981 O.2       5 UNK        -0.5220 
     39 N          26.5946   29.2613    4.7583 N.am      6 UNK        -0.4450 
     40 CA         26.2256   30.5640    5.3172 C.3       6 UNK         0.0367 
     41 CB         24.7014   30.6152    5.5121 C.3       6 UNK        -0.1929 
     42 C          26.6957   31.7580    4.4657 C.2       6 UNK         0.5070 
     43 O          26.8934   32.8408    5.0176 O.2       6 UNK        -0.5237 
     44 N          26.8489   31.5557    3.1499 N.am      7 UNK        -0.4739 
     45 CA         27.3086   32.5782    2.2092 C.3       7 UNK         0.0276 
     46 CB         26.6071   32.3859    0.8545 C.3       7 UNK        -0.1927 
     47 C          28.8318   32.5218    2.0428 C.2       7 UNK         0.5013 
     48 O          29.4947   33.5576    2.1189 O.2       7 UNK        -0.5193 
     49 N          29.3670   31.3121    1.8350 N.am      8 UNK        -0.4253 
     50 CA         30.7874   31.0337    1.6300 C.3       8 UNK         0.0242 
     51 CB         30.9190   29.7298    0.8252 C.3       8 UNK        -0.2000 
     52 C          31.5602   31.0055    2.9617 C.2       8 UNK         0.4948 
     53 O          32.1558   29.9883    3.3207 O.2       8 UNK        -0.5275 
     54 N          31.5618   32.1482    3.6619 N.am      9 UNK        -0.4246 
     55 CA         32.2017   32.3638    4.9657 C.3       9 UNK         0.0261 
     56 CB         31.8738   33.7833    5.4554 C.3       9 UNK        -0.1959 
     57 C          33.7239   32.1216    4.9901 C.2       9 UNK         0.5033 
     58 O          34.2762   31.8871    6.0658 O.2       9 UNK        -0.5390 
     59 N          34.3692   32.1411    3.8143 N.am      10 UNK        -0.4215 
     60 CA         35.7804   31.8081    3.5980 C.3       10 UNK         0.0240 
     61 CB         36.1231   32.0164    2.1137 C.3       10 UNK        -0.1982 
     62 C          36.1754   30.3861    4.0449 C.2       10 UNK         0.4970 
     63 O          37.3457   30.1721    4.3645 O.2       10 UNK        -0.4916 
     64 N          35.2116   29.4543    4.0854 N.am      11 UNK        -0.4279 
     65 CA         35.3858   28.1163    4.6741 C.3       11 UNK         0.1003 
     66 C          35.4537   28.1061    6.2317 C.2       11 UNK         0.5709 
     67 N          35.1627   29.1965    6.9334 N.am      11 UNK        -0.7358 
     68 O          35.7932   27.0819    6.8197 O.2       11 UNK        -0.4999 
     69 C69        34.3159   27.1180    4.1637 C.3       12 UNK        -0.0954 
     70 S70        34.4354   26.8043    2.3701 S.3       12 UNK        -0.2268 
     71 C71        32.6818   26.7730    1.8871 C.3       12 UNK         0.0203 
     72 H72        25.9192   23.2257    3.0823 H         1 UNK         0.0888 
     73 H73        27.4210   22.8145    3.9175 H         1 UNK         0.0888 
     74 H74        27.4431   23.9858    2.5969 H         1 UNK         0.0888 
     75 H75        27.5539   23.2626    0.4502 H         1 UNK         0.3017 
     76 H76        27.1341   20.4823   -0.2666 H         1 UNK         0.0873 
     77 H77        29.3937   20.1861    0.5030 H         1 UNK         0.0745 
     78 H78        29.4309   20.1507   -1.2194 H         1 UNK         0.0745 
     79 H79        30.9132   21.1102    1.7875 H         1 UNK         0.0705 
     80 H80        32.3918   21.6699    1.0619 H         1 UNK         0.0705 
     81 H81        32.4894   24.3435    0.6664 H         1 UNK         0.1334 
     82 H82        31.3214   26.4364    4.2113 H         1 UNK         0.1417 
     83 H83        30.1347   22.3525    3.6441 H         1 UNK         0.1562 
     84 H84        30.7207   23.9840    6.1684 H         1 UNK         0.0748 
     85 H85        29.1588   23.6414    5.4761 H         1 UNK         0.0748 
     86 H86        27.0261   26.3956    5.7315 H         1 UNK         0.0940 
     87 H87        27.6676   25.3041    4.5511 H         1 UNK         0.0940 
     88 H88        29.0558   27.3829    3.6638 H         1 UNK         0.0703 
     89 H89        26.6356   26.3304    2.8785 H         1 UNK         0.3081 
     90 H90        25.7591   26.5339    0.9136 H         1 UNK         0.0719 
     91 H91        25.6199   29.4337   -0.0842 H         1 UNK         0.0809 
     92 H92        24.5481   28.1177   -0.5521 H         1 UNK         0.0809 
     93 H93        24.5377   28.7140    1.0994 H         1 UNK         0.0809 
     94 H94        27.3132   28.0100   -1.1174 H         1 UNK         0.2990 
     95 H95        28.5880   26.8812   -2.5669 H         1 UNK         0.0690 
     96 H96        31.0041   26.4034   -2.0994 H         1 UNK         0.0788 
     97 H97        30.5681   25.6541   -0.5639 H         1 UNK         0.0788 
     98 H98        30.2986   27.3718   -0.8149 H         1 UNK         0.0788 
     99 H99        29.3509   24.0686   -1.9986 H         1 UNK         0.2993 
    100 H100       27.0506   22.7383   -4.3043 H         1 UNK         0.0949 
    101 H101       28.9821   23.2049   -5.8209 H         1 UNK         0.0767 
    102 H102       30.1135   22.7870   -4.5411 H         1 UNK         0.0767 
    103 H103       29.0451   21.5569   -5.2181 H         1 UNK         0.0767 
    104 H104       29.1327   21.7139   -2.5462 H         1 UNK         0.3013 
    105 H105       25.8515   28.7090    4.3558 H         1 UNK         0.3121 
    106 H106       26.6970   30.6578    6.2981 H         1 UNK         0.0774 
    107 H107       24.3975   31.5643    5.9562 H         1 UNK         0.0815 
    108 H108       24.1685   30.5140    4.5658 H         1 UNK         0.0815 
    109 H109       24.3586   29.8242    6.1793 H         1 UNK         0.0815 
    110 H110       26.7389   30.6184    2.7837 H         1 UNK         0.2987 
    111 H111       27.0472   33.5709    2.5832 H         1 UNK         0.0949 
    112 H112       26.8568   31.4274    0.3990 H         1 UNK         0.0806 
    113 H113       25.5231   32.4360    0.9584 H         1 UNK         0.0806 
    114 H114       26.9018   33.1657    0.1510 H         1 UNK         0.0806 
    115 H115       28.7475   30.5030    1.8137 H         1 UNK         0.3010 
    116 H116       31.2192   31.8347    1.0259 H         1 UNK         0.0829 
    117 H117       30.4321   29.8177   -0.1459 H         1 UNK         0.0813 
    118 H118       31.9657   29.4849    0.6409 H         1 UNK         0.0813 
    119 H119       30.4629   28.8893    1.3492 H         1 UNK         0.0813 
    120 H120       31.0181   32.9184    3.2840 H         1 UNK         0.3038 
    121 H121       31.7567   31.6498    5.6620 H         1 UNK         0.0769 
    122 H122       32.2662   34.5438    4.7791 H         1 UNK         0.0811 
    123 H123       32.3061   33.9674    6.4402 H         1 UNK         0.0811 
    124 H124       30.7975   33.9340    5.5432 H         1 UNK         0.0811 
    125 H125       33.8232   32.3444    2.9904 H         1 UNK         0.3204 
    126 H126       36.3733   32.5082    4.1901 H         1 UNK         0.0748 
    127 H127       35.9402   33.0454    1.8032 H         1 UNK         0.0771 
    128 H128       37.1765   31.8058    1.9227 H         1 UNK         0.0771 
    129 H129       35.5377   31.3596    1.4687 H         1 UNK         0.0771 
    130 H130       34.2683   29.6978    3.8059 H         1 UNK         0.2980 
    131 H131       36.3560   27.7404    4.3437 H         1 UNK         0.0545 
    132 H132       35.2225   29.1581    7.9381 H         1 UNK         0.3459 
    133 H133       34.8884   30.0633    6.4826 H         1 UNK         0.3459 
    134 H134       33.3241   27.4990    4.4092 H         1 UNK         0.0616 
    135 H135       34.4071   26.1514    4.6626 H         1 UNK         0.0616 
    136 H136       32.1891   27.6597    2.2785 H         1 UNK         0.0634 
    137 H137       32.6120   26.8353    0.8004 H         1 UNK         0.0634 
@<TRIPOS>BOND
     1    1    2 1    
     2    1   72 1    
     3    1   73 1    
     4    1   74 1    
     5    2    3 2    
     6    2    4 am   BACKBONE|DICT|INTERRES
     7    4    5 1    
     8    4   75 1    
     9    5    6 1    
    10    5   35 1    
    11    5   76 1    
    12    6    7 1    
    13    6   77 1    
    14    6   78 1    
    15    7    8 1    
    16    8    9 1    
    17    8   79 1    
    18    8   80 1    
    19    9   10 ar   
    20    9   14 ar   
    21   10   11 ar   
    22   10   81 1    
    23   11   12 ar   
    24   11   71 1    
    25   12   13 ar   
    26   12   82 1    
    27   13   14 ar   
    28   13   15 1    
    29   14   83 1    
    30   15   16 1    
    31   15   84 1    
    32   15   85 1    
    33   16   17 1    
    34   17   18 1    
    35   17   86 1    
    36   17   87 1    
    37   18   19 1    
    38   18   37 1    
    39   18   88 1    
    40   19   20 am   BACKBONE|DICT|INTERRES
    41   19   89 1    
    42   20   21 2    
    43   20   22 1    
    44   22   23 1    
    45   22   24 1    
    46   22   90 1    
    47   23   91 1    
    48   23   92 1    
    49   23   93 1    
    50   24   25 am   BACKBONE|DICT|INTERRES
    51   24   94 1    
    52   25   26 2    
    53   25   27 1    
    54   27   28 1    
    55   27   29 1    
    56   27   95 1    
    57   28   96 1    
    58   28   97 1    
    59   28   98 1    
    60   29   30 am   BACKBONE|DICT|INTERRES
    61   29   99 1    
    62   30   31 2    
    63   30   32 1    
    64   32   33 1    
    65   32   34 1    
    66   32  100 1    
    67   33  101 1    
    68   33  102 1    
    69   33  103 1    
    70   34   35 am   BACKBONE|DICT|INTERRES
    71   34  104 1    
    72   35   36 2    
    73   37   38 2    
    74   37   39 am   BACKBONE|DICT|INTERRES
    75   39   40 1    
    76   39  105 1    
    77   40   41 1    
    78   40   42 1    
    79   40  106 1    
    80   41  107 1    
    81   41  108 1    
    82   41  109 1    
    83   42   43 2    
    84   42   44 am   BACKBONE|DICT|INTERRES
    85   44   45 1    
    86   44  110 1    
    87   45   46 1    
    88   45   47 1    
    89   45  111 1    
    90   46  112 1    
    91   46  113 1    
    92   46  114 1    
    93   47   48 2    
    94   47   49 am   BACKBONE|DICT|INTERRES
    95   49   50 1    
    96   49  115 1    
    97   50   51 1    
    98   50   52 1    
    99   50  116 1    
   100   51  117 1    
   101   51  118 1    
   102   51  119 1    
   103   52   53 2    
   104   52   54 am   BACKBONE|DICT|INTERRES
   105   54   55 1    
   106   54  120 1    
   107   55   56 1    
   108   55   57 1    
   109   55  121 1    
   110   56  122 1    
   111   56  123 1    
   112   56  124 1    
   113   57   58 2    
   114   57   59 am   BACKBONE|DICT|INTERRES
   115   59   60 1    
   116   59  125 1    
   117   60   61 1    
   118   60   62 1    
   119   60  126 1    
   120   61  127 1    
   121   61  128 1    
   122   61  129 1    
   123   62   63 2    
   124   62   64 am   BACKBONE|DICT|INTERRES
   125   64   65 1    
   126   64  130 1    
   127   65   66 1    
   128   65   69 1    
   129   65  131 1    
   130   66   67 am   BACKBONE|DICT|INTERRES
   131   66   68 2    
   132   67  132 1    
   133   67  133 1    
   134   69   70 1    
   135   69  134 1    
   136   69  135 1    
   137   70   71 1    
   138   71  136 1    
   139   71  137 1    
@<TRIPOS>SUBSTRUCTURE
     1 UNK         1 GROUP             0       ****    0 ROOT    
