@<TRIPOS>MOLECULE
3R136
137   139    1
SMALL
USER_CHARGES


@<TRIPOS>ATOM
      1 CA         32.6326   22.5553   -3.4406 C.3       0 UNK        -0.1979 
      2 C          31.7546   23.7642   -3.1532 C.2       0 UNK         0.4864 
      3 O          31.6902   24.6828   -3.9719 O.2       0 UNK        -0.5359 
      4 N          31.0823   23.7740   -1.9952 N.am      1 UNK        -0.4318 
      5 CA         30.1606   24.8312   -1.5726 C.3       1 UNK         0.0824 
      6 C6         29.9430   24.8319   -0.0370 C.3       12 UNK        -0.0944 
      7 S7         31.4717   25.3152    0.8379 S.3       12 UNK        -0.2672 
      8 C8         31.9974   23.7519    1.6032 C.3       12 UNK         0.0333 
      9 C9         31.5836   23.6890    3.0650 C.ar      12 UNK        -0.0807 
     10 C10        32.4416   24.1869    4.0503 C.ar      12 UNK        -0.0894 
     11 C11        32.0937   24.1228    5.4068 C.ar      12 UNK        -0.0804 
     12 C12        30.8683   23.5494    5.7600 C.ar      12 UNK        -0.0824 
     13 C13        30.0015   23.0445    4.7851 C.ar      12 UNK        -0.0762 
     14 C14        30.3638   23.1182    3.4370 C.ar      12 UNK        -0.0782 
     15 C15        28.6888   22.3896    5.1946 C.3       12 UNK         0.0230 
     16 S16        27.2327   23.3587    4.6881 S.3       12 UNK        -0.2608 
     17 C17        27.5055   24.9433    5.5521 C.3       12 UNK        -0.0989 
     18 CA         27.7457   26.1004    4.5526 C.3       5 UNK         0.0716 
     19 N          26.5764   26.3180    3.6983 N.am      5 UNK        -0.4135 
     20 C          26.4607   27.2276    2.7237 C.2       4 UNK         0.5031 
     21 O          27.3635   28.0000    2.3791 O.2       4 UNK        -0.5229 
     22 CA         25.0702   27.2951    2.0627 C.3       4 UNK         0.0329 
     23 CB         24.1063   28.1473    2.9058 C.3       4 UNK        -0.2001 
     24 N          25.0977   27.8127    0.6933 N.am      4 UNK        -0.4303 
     25 C          25.7120   27.2074   -0.3305 C.2       3 UNK         0.5044 
     26 O          26.3140   26.1366   -0.2202 O.2       3 UNK        -0.5152 
     27 CA         25.6249   27.9103   -1.7005 C.3       3 UNK         0.0319 
     28 CB         25.9348   29.4185   -1.6125 C.3       3 UNK        -0.2001 
     29 N          26.5490   27.2848   -2.6485 N.am      3 UNK        -0.4354 
     30 C          26.2494   26.2501   -3.4459 C.2       2 UNK         0.4964 
     31 O          25.1122   25.8034   -3.6032 O.2       2 UNK        -0.5047 
     32 CA         27.4281   25.5936   -4.1849 C.3       2 UNK         0.0288 
     33 CB         27.7270   26.3344   -5.4987 C.3       2 UNK        -0.2113 
     34 N          28.6435   25.5412   -3.3655 N.am      2 UNK        -0.4145 
     35 C          28.8347   24.6912   -2.3453 C.2       1 UNK         0.5006 
     36 O          28.0398   23.8026   -2.0310 O.2       1 UNK        -0.5103 
     37 C          28.1141   27.3951    5.2998 C.2       5 UNK         0.5055 
     38 O          27.2579   27.9630    5.9815 O.2       5 UNK        -0.5220 
     39 N          29.3655   27.8401    5.1242 N.am      6 UNK        -0.4450 
     40 CA         29.9411   29.0928    5.6319 C.3       6 UNK         0.0367 
     41 CB         29.9261   29.1384    7.1749 C.3       6 UNK        -0.1929 
     42 C          29.3615   30.3770    4.9948 C.2       6 UNK         0.5070 
     43 O          29.6656   31.4683    5.4791 O.2       6 UNK        -0.5237 
     44 N          28.5748   30.2470    3.9157 N.am      7 UNK        -0.4739 
     45 CA         28.1054   31.3600    3.0847 C.3       7 UNK         0.0276 
     46 CB         26.5793   31.2852    2.9205 C.3       7 UNK        -0.1927 
     47 C          28.7920   31.3348    1.7117 C.2       7 UNK         0.5013 
     48 O          29.1373   32.3976    1.1949 O.2       7 UNK        -0.5193 
     49 N          28.9952   30.1310    1.1516 N.am      8 UNK        -0.4253 
     50 CA         29.6881   29.9023   -0.1231 C.3       8 UNK         0.0242 
     51 CB         29.5471   28.4222   -0.5062 C.3       8 UNK        -0.2000 
     52 C          31.1816   30.2773   -0.0978 C.2       8 UNK         0.4948 
     53 O          31.7354   30.6377   -1.1371 O.2       8 UNK        -0.5275 
     54 N          31.8003   30.1711    1.0805 N.am      9 UNK        -0.4246 
     55 CA         33.1917   30.4873    1.3729 C.3       9 UNK         0.0261 
     56 CB         34.0844   29.2839    1.0173 C.3       9 UNK        -0.1959 
     57 C          33.2736   30.8136    2.8666 C.2       9 UNK         0.5033 
     58 O          32.3618   30.4488    3.6151 O.2       9 UNK        -0.5390 
     59 N          34.3675   31.4577    3.2921 N.am      10 UNK        -0.4215 
     60 CA         34.6335   31.8652    4.6790 C.3       10 UNK         0.0240 
     61 CB         35.7110   32.9667    4.6754 C.3       10 UNK        -0.1982 
     62 C          34.9959   30.6824    5.6061 C.2       10 UNK         0.4970 
     63 O          36.0344   30.7085    6.2688 O.2       10 UNK        -0.4916 
     64 N          34.1318   29.6633    5.6249 N.am      11 UNK        -0.4279 
     65 CA         34.2499   28.4375    6.4263 C.3       11 UNK         0.1003 
     66 C          33.7808   28.5874    7.9057 C.2       11 UNK         0.5709 
     67 N          33.2593   29.7340    8.3265 N.am      11 UNK        -0.7358 
     68 O          33.9051   27.6543    8.6946 O.2       11 UNK        -0.4999 
     69 C69        33.5699   27.2465    5.6941 C.3       12 UNK        -0.0954 
     70 S70        34.4148   25.6622    6.0097 S.3       12 UNK        -0.2268 
     71 C71        33.0198   24.6043    6.5284 C.3       12 UNK         0.0203 
     72 H72        33.6673   22.8682   -3.5790 H         1 UNK         0.0888 
     73 H73        32.6043   21.8281   -2.6293 H         1 UNK         0.0888 
     74 H74        32.3011   22.0595   -4.3526 H         1 UNK         0.0888 
     75 H75        31.1520   22.9818   -1.3741 H         1 UNK         0.3017 
     76 H76        30.6035   25.7939   -1.8380 H         1 UNK         0.0873 
     77 H77        29.1643   25.5450    0.2410 H         1 UNK         0.0745 
     78 H78        29.5908   23.8602    0.3131 H         1 UNK         0.0745 
     79 H79        33.0833   23.6778    1.5254 H         1 UNK         0.0705 
     80 H80        31.6013   22.8979    1.0526 H         1 UNK         0.0705 
     81 H81        33.3870   24.6115    3.7451 H         1 UNK         0.1334 
     82 H82        30.5958   23.4805    6.8047 H         1 UNK         0.1417 
     83 H83        29.6967   22.7271    2.6806 H         1 UNK         0.1562 
     84 H84        28.6513   22.2314    6.2736 H         1 UNK         0.0748 
     85 H85        28.6269   21.3993    4.7411 H         1 UNK         0.0748 
     86 H86        28.3461   24.8451    6.2411 H         1 UNK         0.0940 
     87 H87        26.6341   25.1485    6.1775 H         1 UNK         0.0940 
     88 H88        28.5764   25.8253    3.8982 H         1 UNK         0.0703 
     89 H89        25.7784   25.7383    3.9109 H         1 UNK         0.3081 
     90 H90        24.6730   26.2787    2.0146 H         1 UNK         0.0719 
     91 H91        24.4205   29.1889    2.9597 H         1 UNK         0.0809 
     92 H92        23.0961   28.1242    2.4964 H         1 UNK         0.0809 
     93 H93        24.0445   27.7765    3.9299 H         1 UNK         0.0809 
     94 H94        24.6421   28.6985    0.5334 H         1 UNK         0.2990 
     95 H95        24.6010   27.7965   -2.0627 H         1 UNK         0.0690 
     96 H96        25.9843   29.8696   -2.6038 H         1 UNK         0.0788 
     97 H97        26.8798   29.6181   -1.1097 H         1 UNK         0.0788 
     98 H98        25.1581   29.9524   -1.0643 H         1 UNK         0.0788 
     99 H99        27.5177   27.5518   -2.5692 H         1 UNK         0.2993 
    100 H100       27.1347   24.5703   -4.4305 H         1 UNK         0.0949 
    101 H101       28.0399   27.3645   -5.3230 H         1 UNK         0.0767 
    102 H102       28.5149   25.8356   -6.0638 H         1 UNK         0.0767 
    103 H103       26.8428   26.3665   -6.1371 H         1 UNK         0.0767 
    104 H104       29.3887   26.1767   -3.6137 H         1 UNK         0.3013 
    105 H105       29.9769   27.3005    4.5263 H         1 UNK         0.3121 
    106 H106       30.9875   29.0701    5.3299 H         1 UNK         0.0774 
    107 H107       30.4868   29.9970    7.5452 H         1 UNK         0.0815 
    108 H108       28.9147   29.2238    7.5719 H         1 UNK         0.0815 
    109 H109       30.3839   28.2470    7.6036 H         1 UNK         0.0815 
    110 H110       28.3303   29.3161    3.5961 H         1 UNK         0.2987 
    111 H111       28.3458   32.3154    3.5563 H         1 UNK         0.0949 
    112 H112       26.2017   32.1739    2.4134 H         1 UNK         0.0806 
    113 H113       26.2790   30.4243    2.3245 H         1 UNK         0.0806 
    114 H114       26.0765   31.2219    3.8856 H         1 UNK         0.0806 
    115 H115       28.6009   29.3135    1.6086 H         1 UNK         0.3010 
    116 H116       29.2016   30.5140   -0.8855 H         1 UNK         0.0829 
    117 H117       28.5111   28.0916   -0.4959 H         1 UNK         0.0813 
    118 H118       29.9470   28.2371   -1.5037 H         1 UNK         0.0813 
    119 H119       30.0958   27.7899    0.1904 H         1 UNK         0.0813 
    120 H120       31.2614   29.9310    1.9039 H         1 UNK         0.3038 
    121 H121       33.4953   31.3671    0.8015 H         1 UNK         0.0769 
    122 H122       35.1331   29.4911    1.2327 H         1 UNK         0.0811 
    123 H123       34.0156   29.0389   -0.0428 H         1 UNK         0.0811 
    124 H124       33.8029   28.3940    1.5826 H         1 UNK         0.0811 
    125 H125       35.0859   31.6812    2.6179 H         1 UNK         0.3204 
    126 H126       33.7184   32.3055    5.0814 H         1 UNK         0.0748 
    127 H127       35.8946   33.3395    5.6841 H         1 UNK         0.0771 
    128 H128       36.6613   32.6011    4.2842 H         1 UNK         0.0771 
    129 H129       35.4043   33.8204    4.0705 H         1 UNK         0.0771 
    130 H130       33.3106   29.7473    5.0307 H         1 UNK         0.2980 
    131 H131       35.3177   28.2189    6.4878 H         1 UNK         0.0545 
    132 H132       33.1645   30.5151    7.6990 H         1 UNK         0.3459 
    133 H133       32.9717   29.8188    9.2883 H         1 UNK         0.3459 
    134 H134       33.6015   27.3942    4.6130 H         1 UNK         0.0616 
    135 H135       32.5112   27.1767    5.9495 H         1 UNK         0.0616 
    136 H136       32.4414   25.1366    7.2854 H         1 UNK         0.0634 
    137 H137       33.4347   23.7251    7.0227 H         1 UNK         0.0634 
@<TRIPOS>BOND
     1    1    2 1    
     2    1   72 1    
     3    1   73 1    
     4    1   74 1    
     5    2    3 2    
     6    2    4 am   BACKBONE|DICT|INTERRES
     7    4    5 1    
     8    4   75 1    
     9    5    6 1    
    10    5   35 1    
    11    5   76 1    
    12    6    7 1    
    13    6   77 1    
    14    6   78 1    
    15    7    8 1    
    16    8    9 1    
    17    8   79 1    
    18    8   80 1    
    19    9   10 ar   
    20    9   14 ar   
    21   10   11 ar   
    22   10   81 1    
    23   11   12 ar   
    24   11   71 1    
    25   12   13 ar   
    26   12   82 1    
    27   13   14 ar   
    28   13   15 1    
    29   14   83 1    
    30   15   16 1    
    31   15   84 1    
    32   15   85 1    
    33   16   17 1    
    34   17   18 1    
    35   17   86 1    
    36   17   87 1    
    37   18   19 1    
    38   18   37 1    
    39   18   88 1    
    40   19   20 am   BACKBONE|DICT|INTERRES
    41   19   89 1    
    42   20   21 2    
    43   20   22 1    
    44   22   23 1    
    45   22   24 1    
    46   22   90 1    
    47   23   91 1    
    48   23   92 1    
    49   23   93 1    
    50   24   25 am   BACKBONE|DICT|INTERRES
    51   24   94 1    
    52   25   26 2    
    53   25   27 1    
    54   27   28 1    
    55   27   29 1    
    56   27   95 1    
    57   28   96 1    
    58   28   97 1    
    59   28   98 1    
    60   29   30 am   BACKBONE|DICT|INTERRES
    61   29   99 1    
    62   30   31 2    
    63   30   32 1    
    64   32   33 1    
    65   32   34 1    
    66   32  100 1    
    67   33  101 1    
    68   33  102 1    
    69   33  103 1    
    70   34   35 am   BACKBONE|DICT|INTERRES
    71   34  104 1    
    72   35   36 2    
    73   37   38 2    
    74   37   39 am   BACKBONE|DICT|INTERRES
    75   39   40 1    
    76   39  105 1    
    77   40   41 1    
    78   40   42 1    
    79   40  106 1    
    80   41  107 1    
    81   41  108 1    
    82   41  109 1    
    83   42   43 2    
    84   42   44 am   BACKBONE|DICT|INTERRES
    85   44   45 1    
    86   44  110 1    
    87   45   46 1    
    88   45   47 1    
    89   45  111 1    
    90   46  112 1    
    91   46  113 1    
    92   46  114 1    
    93   47   48 2    
    94   47   49 am   BACKBONE|DICT|INTERRES
    95   49   50 1    
    96   49  115 1    
    97   50   51 1    
    98   50   52 1    
    99   50  116 1    
   100   51  117 1    
   101   51  118 1    
   102   51  119 1    
   103   52   53 2    
   104   52   54 am   BACKBONE|DICT|INTERRES
   105   54   55 1    
   106   54  120 1    
   107   55   56 1    
   108   55   57 1    
   109   55  121 1    
   110   56  122 1    
   111   56  123 1    
   112   56  124 1    
   113   57   58 2    
   114   57   59 am   BACKBONE|DICT|INTERRES
   115   59   60 1    
   116   59  125 1    
   117   60   61 1    
   118   60   62 1    
   119   60  126 1    
   120   61  127 1    
   121   61  128 1    
   122   61  129 1    
   123   62   63 2    
   124   62   64 am   BACKBONE|DICT|INTERRES
   125   64   65 1    
   126   64  130 1    
   127   65   66 1    
   128   65   69 1    
   129   65  131 1    
   130   66   67 am   BACKBONE|DICT|INTERRES
   131   66   68 2    
   132   67  132 1    
   133   67  133 1    
   134   69   70 1    
   135   69  134 1    
   136   69  135 1    
   137   70   71 1    
   138   71  136 1    
   139   71  137 1    
@<TRIPOS>SUBSTRUCTURE
     1 UNK         1 GROUP             0       ****    0 ROOT    
