@<TRIPOS>MOLECULE
3R136
137   139    1
SMALL
USER_CHARGES


@<TRIPOS>ATOM
      1 CA         25.2791   17.8963    0.3490 C.3       0 UNK        -0.1979 
      2 C          25.6964   19.3528    0.2136 C.2       0 UNK         0.4864 
      3 O          24.9297   20.1656   -0.3071 O.2       0 UNK        -0.5359 
      4 N          26.8999   19.6999    0.6899 N.am      1 UNK        -0.4318 
      5 CA         27.4851   21.0462    0.6492 C.3       1 UNK         0.0824 
      6 C6         29.0331   20.9692    0.6947 C.3       12 UNK        -0.0944 
      7 S7         29.8467   22.5144    0.1616 S.3       12 UNK        -0.2672 
      8 C8         31.1501   22.6410    1.4331 C.3       12 UNK         0.0333 
      9 C9         32.0155   23.8912    1.3038 C.ar      12 UNK        -0.0807 
     10 C10        32.4102   24.5817    2.4547 C.ar      12 UNK        -0.0894 
     11 C11        33.2312   25.7110    2.3671 C.ar      12 UNK        -0.0804 
     12 C12        33.6378   26.1646    1.1075 C.ar      12 UNK        -0.0824 
     13 C13        33.2473   25.4892   -0.0526 C.ar      12 UNK        -0.0762 
     14 C14        32.4530   24.3442    0.0549 C.ar      12 UNK        -0.0782 
     15 C15        33.7245   25.9623   -1.4193 C.3       12 UNK         0.0230 
     16 S16        32.3513   26.2821   -2.5743 S.3       12 UNK        -0.2608 
     17 C17        31.7367   27.9063   -2.0158 C.3       12 UNK        -0.0989 
     18 CA         30.1882   27.9184   -1.8704 C.3       5 UNK         0.0716 
     19 N          29.7125   27.0534   -0.7786 N.am      5 UNK        -0.4135 
     20 C          29.8462   27.2793    0.5377 C.2       4 UNK         0.5031 
     21 O          30.3939   28.2786    1.0068 O.2       4 UNK        -0.5229 
     22 CA         29.1592   26.2582    1.4695 C.3       4 UNK         0.0329 
     23 CB         29.1624   26.7011    2.9442 C.3       4 UNK        -0.2001 
     24 N          27.7917   25.9089    1.0559 N.am      4 UNK        -0.4303 
     25 C          26.7863   26.7551    0.7752 C.2       3 UNK         0.5044 
     26 O          26.8950   27.9811    0.7822 O.2       3 UNK        -0.5152 
     27 CA         25.4347   26.1393    0.3767 C.3       3 UNK         0.0319 
     28 CB         25.3013   26.1045   -1.1546 C.3       3 UNK        -0.2001 
     29 N          25.2212   24.7918    0.9098 N.am      3 UNK        -0.4354 
     30 C          24.9529   24.5107    2.1942 C.2       2 UNK         0.4964 
     31 O          24.8415   25.3641    3.0744 O.2       2 UNK        -0.5047 
     32 CA         24.7760   23.0260    2.5581 C.3       2 UNK         0.0288 
     33 CB         23.2913   22.6303    2.5089 C.3       2 UNK        -0.2113 
     34 N          25.5407   22.1348    1.6821 N.am      2 UNK        -0.4145 
     35 C          26.8690   21.9700    1.7290 C.2       1 UNK         0.5006 
     36 O          27.5828   22.5116    2.5752 O.2       1 UNK        -0.5103 
     37 C          29.6028   29.3549   -1.8241 C.2       5 UNK         0.5055 
     38 O          30.2093   30.2746   -2.3765 O.2       5 UNK        -0.5220 
     39 N          28.4389   29.5270   -1.1728 N.am      6 UNK        -0.4450 
     40 CA         27.7542   30.7937   -0.8855 C.3       6 UNK         0.0367 
     41 CB         27.2843   31.4854   -2.1832 C.3       6 UNK        -0.1929 
     42 C          28.5635   31.7292    0.0377 C.2       6 UNK         0.5070 
     43 O          28.3566   32.9434    0.0050 O.2       6 UNK        -0.5237 
     44 N          29.4591   31.1568    0.8527 N.am      7 UNK        -0.4739 
     45 CA         30.3486   31.8695    1.7673 C.3       7 UNK         0.0276 
     46 CB         31.7385   32.0057    1.1158 C.3       7 UNK        -0.1927 
     47 C          30.3946   31.1517    3.1236 C.2       7 UNK         0.5013 
     48 O          31.4709   31.0223    3.7058 O.2       7 UNK        -0.5193 
     49 N          29.2266   30.6950    3.6025 N.am      8 UNK        -0.4253 
     50 CA         29.0428   29.9585    4.8585 C.3       8 UNK         0.0242 
     51 CB         27.5427   29.7156    5.0908 C.3       8 UNK        -0.2000 
     52 C          29.6714   30.6664    6.0708 C.2       8 UNK         0.4948 
     53 O          29.5131   31.8809    6.2189 O.2       8 UNK        -0.5275 
     54 N          30.4102   29.8964    6.8813 N.am      9 UNK        -0.4246 
     55 CA         31.2599   30.3036    8.0108 C.3       9 UNK         0.0261 
     56 CB         30.4591   31.0294    9.1100 C.3       9 UNK        -0.1959 
     57 C          32.5066   31.1095    7.5973 C.2       9 UNK         0.5033 
     58 O          33.5960   30.8140    8.0910 O.2       9 UNK        -0.5390 
     59 N          32.3468   32.0805    6.6874 N.am      10 UNK        -0.4215 
     60 CA         33.4140   32.9180    6.1287 C.3       10 UNK         0.0240 
     61 CB         32.8015   33.9842    5.2059 C.3       10 UNK        -0.1982 
     62 C          34.5041   32.1182    5.3922 C.2       10 UNK         0.4970 
     63 O          35.6748   32.4946    5.4631 O.2       10 UNK        -0.4916 
     64 N          34.1101   31.0214    4.7330 N.am      11 UNK        -0.4279 
     65 CA         35.0046   30.0340    4.1149 C.3       11 UNK         0.1003 
     66 C          35.8816   29.2084    5.1061 C.2       11 UNK         0.5709 
     67 N          35.6634   29.2685    6.4157 N.am      11 UNK        -0.7358 
     68 O          36.7912   28.5044    4.6735 O.2       11 UNK        -0.4999 
     69 C69        34.2425   29.1315    3.1068 C.3       12 UNK        -0.0954 
     70 S70        32.9811   28.0476    3.8725 S.3       12 UNK        -0.2268 
     71 C71        33.7157   26.3989    3.6393 C.3       12 UNK         0.0203 
     72 H72        24.3711   17.8205    0.9465 H         1 UNK         0.0888 
     73 H73        25.0771   17.4718   -0.6340 H         1 UNK         0.0888 
     74 H74        26.0512   17.2934    0.8265 H         1 UNK         0.0888 
     75 H75        27.4686   18.9948    1.1377 H         1 UNK         0.3017 
     76 H76        27.2177   21.4847   -0.3151 H         1 UNK         0.0873 
     77 H77        29.3745   20.6786    1.6901 H         1 UNK         0.0745 
     78 H78        29.3845   20.1857    0.0212 H         1 UNK         0.0745 
     79 H79        30.6723   22.6173    2.4142 H         1 UNK         0.0705 
     80 H80        31.7936   21.7623    1.3744 H         1 UNK         0.0705 
     81 H81        32.0932   24.2264    3.4258 H         1 UNK         0.1334 
     82 H82        34.2728   27.0342    1.0285 H         1 UNK         0.1417 
     83 H83        32.1712   23.8093   -0.8419 H         1 UNK         0.1562 
     84 H84        34.3650   25.1902   -1.8474 H         1 UNK         0.0748 
     85 H85        34.3415   26.8585   -1.3362 H         1 UNK         0.0748 
     86 H86        32.0737   28.6314   -2.7586 H         1 UNK         0.0940 
     87 H87        32.2126   28.1937   -1.0764 H         1 UNK         0.0940 
     88 H88        29.7719   27.4909   -2.7838 H         1 UNK         0.0703 
     89 H89        29.2346   26.2122   -1.0677 H         1 UNK         0.3081 
     90 H90        29.7414   25.3420    1.4003 H         1 UNK         0.0719 
     91 H91        30.1766   26.9047    3.2900 H         1 UNK         0.0809 
     92 H92        28.5764   27.6088    3.0809 H         1 UNK         0.0809 
     93 H93        28.7461   25.9292    3.5913 H         1 UNK         0.0809 
     94 H94        27.5921   24.9195    1.0159 H         1 UNK         0.2990 
     95 H95        24.6516   26.7903    0.7716 H         1 UNK         0.0690 
     96 H96        24.3162   25.7498   -1.4587 H         1 UNK         0.0788 
     97 H97        26.0487   25.4557   -1.6131 H         1 UNK         0.0788 
     98 H98        25.4289   27.1009   -1.5807 H         1 UNK         0.0788 
     99 H99        25.2674   24.0274    0.2521 H         1 UNK         0.2993 
    100 H100       25.1330   22.8940    3.5821 H         1 UNK         0.0949 
    101 H101       22.6964   23.2633    3.1691 H         1 UNK         0.0767 
    102 H102       22.8795   22.7279    1.5035 H         1 UNK         0.0767 
    103 H103       23.1456   21.5993    2.8323 H         1 UNK         0.0767 
    104 H104       25.0293   21.6115    0.9754 H         1 UNK         0.3013 
    105 H105       28.0329   28.7267   -0.6977 H         1 UNK         0.3121 
    106 H106       26.8606   30.5255   -0.3201 H         1 UNK         0.0774 
    107 H107       28.1222   31.8658   -2.7678 H         1 UNK         0.0815 
    108 H108       26.6356   32.3334   -1.9604 H         1 UNK         0.0815 
    109 H109       26.7158   30.8023   -2.8141 H         1 UNK         0.0815 
    110 H110       29.5827   30.1471    0.8296 H         1 UNK         0.2987 
    111 H111       29.9632   32.8713    1.9682 H         1 UNK         0.0949 
    112 H112       32.1773   31.0283    0.9111 H         1 UNK         0.0806 
    113 H113       31.6821   32.5506    0.1734 H         1 UNK         0.0806 
    114 H114       32.4284   32.5480    1.7637 H         1 UNK         0.0806 
    115 H115       28.3977   30.8636    3.0525 H         1 UNK         0.3010 
    116 H116       29.5388   28.9950    4.7316 H         1 UNK         0.0829 
    117 H117       27.3774   29.1303    5.9964 H         1 UNK         0.0813 
    118 H118       26.9981   30.6538    5.2058 H         1 UNK         0.0813 
    119 H119       27.0918   29.1655    4.2645 H         1 UNK         0.0813 
    120 H120       30.4856   28.9174    6.6404 H         1 UNK         0.3038 
    121 H121       31.6269   29.3716    8.4440 H         1 UNK         0.0769 
    122 H122       30.0862   31.9984    8.7776 H         1 UNK         0.0811 
    123 H123       31.0830   31.2096    9.9864 H         1 UNK         0.0811 
    124 H124       29.6056   30.4354    9.4366 H         1 UNK         0.0811 
    125 H125       31.4049   32.2270    6.3324 H         1 UNK         0.3204 
    126 H126       33.8955   33.4279    6.9655 H         1 UNK         0.0748 
    127 H127       33.5733   34.6410    4.8022 H         1 UNK         0.0771 
    128 H128       32.2801   33.5356    4.3599 H         1 UNK         0.0771 
    129 H129       32.0903   34.6123    5.7427 H         1 UNK         0.0771 
    130 H130       33.1143   30.8389    4.6322 H         1 UNK         0.2980 
    131 H131       35.7198   30.6110    3.5259 H         1 UNK         0.0545 
    132 H132       36.2478   28.7296    7.0341 H         1 UNK         0.3459 
    133 H133       34.9299   29.8518    6.8000 H         1 UNK         0.3459 
    134 H134       33.7350   29.7543    2.3692 H         1 UNK         0.0616 
    135 H135       34.9564   28.5353    2.5389 H         1 UNK         0.0616 
    136 H136       33.4630   25.7957    4.5124 H         1 UNK         0.0634 
    137 H137       34.8044   26.4664    3.6322 H         1 UNK         0.0634 
@<TRIPOS>BOND
     1    1    2 1    
     2    1   72 1    
     3    1   73 1    
     4    1   74 1    
     5    2    3 2    
     6    2    4 am   BACKBONE|DICT|INTERRES
     7    4    5 1    
     8    4   75 1    
     9    5    6 1    
    10    5   35 1    
    11    5   76 1    
    12    6    7 1    
    13    6   77 1    
    14    6   78 1    
    15    7    8 1    
    16    8    9 1    
    17    8   79 1    
    18    8   80 1    
    19    9   10 ar   
    20    9   14 ar   
    21   10   11 ar   
    22   10   81 1    
    23   11   12 ar   
    24   11   71 1    
    25   12   13 ar   
    26   12   82 1    
    27   13   14 ar   
    28   13   15 1    
    29   14   83 1    
    30   15   16 1    
    31   15   84 1    
    32   15   85 1    
    33   16   17 1    
    34   17   18 1    
    35   17   86 1    
    36   17   87 1    
    37   18   19 1    
    38   18   37 1    
    39   18   88 1    
    40   19   20 am   BACKBONE|DICT|INTERRES
    41   19   89 1    
    42   20   21 2    
    43   20   22 1    
    44   22   23 1    
    45   22   24 1    
    46   22   90 1    
    47   23   91 1    
    48   23   92 1    
    49   23   93 1    
    50   24   25 am   BACKBONE|DICT|INTERRES
    51   24   94 1    
    52   25   26 2    
    53   25   27 1    
    54   27   28 1    
    55   27   29 1    
    56   27   95 1    
    57   28   96 1    
    58   28   97 1    
    59   28   98 1    
    60   29   30 am   BACKBONE|DICT|INTERRES
    61   29   99 1    
    62   30   31 2    
    63   30   32 1    
    64   32   33 1    
    65   32   34 1    
    66   32  100 1    
    67   33  101 1    
    68   33  102 1    
    69   33  103 1    
    70   34   35 am   BACKBONE|DICT|INTERRES
    71   34  104 1    
    72   35   36 2    
    73   37   38 2    
    74   37   39 am   BACKBONE|DICT|INTERRES
    75   39   40 1    
    76   39  105 1    
    77   40   41 1    
    78   40   42 1    
    79   40  106 1    
    80   41  107 1    
    81   41  108 1    
    82   41  109 1    
    83   42   43 2    
    84   42   44 am   BACKBONE|DICT|INTERRES
    85   44   45 1    
    86   44  110 1    
    87   45   46 1    
    88   45   47 1    
    89   45  111 1    
    90   46  112 1    
    91   46  113 1    
    92   46  114 1    
    93   47   48 2    
    94   47   49 am   BACKBONE|DICT|INTERRES
    95   49   50 1    
    96   49  115 1    
    97   50   51 1    
    98   50   52 1    
    99   50  116 1    
   100   51  117 1    
   101   51  118 1    
   102   51  119 1    
   103   52   53 2    
   104   52   54 am   BACKBONE|DICT|INTERRES
   105   54   55 1    
   106   54  120 1    
   107   55   56 1    
   108   55   57 1    
   109   55  121 1    
   110   56  122 1    
   111   56  123 1    
   112   56  124 1    
   113   57   58 2    
   114   57   59 am   BACKBONE|DICT|INTERRES
   115   59   60 1    
   116   59  125 1    
   117   60   61 1    
   118   60   62 1    
   119   60  126 1    
   120   61  127 1    
   121   61  128 1    
   122   61  129 1    
   123   62   63 2    
   124   62   64 am   BACKBONE|DICT|INTERRES
   125   64   65 1    
   126   64  130 1    
   127   65   66 1    
   128   65   69 1    
   129   65  131 1    
   130   66   67 am   BACKBONE|DICT|INTERRES
   131   66   68 2    
   132   67  132 1    
   133   67  133 1    
   134   69   70 1    
   135   69  134 1    
   136   69  135 1    
   137   70   71 1    
   138   71  136 1    
   139   71  137 1    
@<TRIPOS>SUBSTRUCTURE
     1 UNK         1 GROUP             0       ****    0 ROOT    
