@<TRIPOS>MOLECULE
3R136
137   139    1
SMALL
USER_CHARGES


@<TRIPOS>ATOM
      1 CA         26.1231   22.9918    2.0362 C.3       0 UNK        -0.1979 
      2 C          27.0505   22.3742    1.0033 C.2       0 UNK         0.4864 
      3 O          27.0794   21.1516    0.8575 O.2       0 UNK        -0.5359 
      4 N          27.7998   23.2030    0.2632 N.am      1 UNK        -0.4318 
      5 CA         28.7846   22.7975   -0.7492 C.3       1 UNK         0.0824 
      6 C6         29.8919   23.8740   -0.9467 C.3       12 UNK        -0.0944 
      7 S7         30.5752   24.6403    0.5677 S.3       12 UNK        -0.2672 
      8 C8         30.8782   23.2545    1.7085 C.3       12 UNK         0.0333 
      9 C9         30.9436   23.7868    3.1292 C.ar      12 UNK        -0.0807 
     10 C10        32.1566   24.2232    3.6651 C.ar      12 UNK        -0.0894 
     11 C11        32.2050   24.7820    4.9452 C.ar      12 UNK        -0.0804 
     12 C12        31.0261   24.9159    5.6853 C.ar      12 UNK        -0.0824 
     13 C13        29.8049   24.4745    5.1625 C.ar      12 UNK        -0.0762 
     14 C14        29.7778   23.8876    3.8928 C.ar      12 UNK        -0.0782 
     15 C15        28.5247   24.6321    5.9800 C.3       12 UNK         0.0230 
     16 S16        27.1095   25.2865    5.0247 S.3       12 UNK        -0.2608 
     17 C17        27.7795   26.8442    4.3521 C.3       12 UNK        -0.0989 
     18 CA         27.9103   26.7960    2.8077 C.3       5 UNK         0.0716 
     19 N          26.6014   26.7283    2.1487 N.am      5 UNK        -0.4135 
     20 C          26.4207   26.3784    0.8708 C.2       4 UNK         0.5031 
     21 O          27.3320   26.0049    0.1278 O.2       4 UNK        -0.5229 
     22 CA         24.9830   26.4052    0.3383 C.3       4 UNK         0.0329 
     23 CB         24.4978   27.8502    0.1172 C.3       4 UNK        -0.2001 
     24 N          24.9472   25.6691   -0.9244 N.am      4 UNK        -0.4303 
     25 C          23.8723   25.0922   -1.4729 C.2       3 UNK         0.5044 
     26 O          22.7526   25.0931   -0.9612 O.2       3 UNK        -0.5152 
     27 CA         24.0960   24.3717   -2.8075 C.3       3 UNK         0.0319 
     28 CB         24.6297   25.3317   -3.8915 C.3       3 UNK        -0.2001 
     29 N          24.9995   23.2392   -2.6079 N.am      3 UNK        -0.4354 
     30 C          25.1745   22.2172   -3.4579 C.2       2 UNK         0.4964 
     31 O          24.5816   22.1220   -4.5340 O.2       2 UNK        -0.5047 
     32 CA         26.1509   21.0978   -3.0293 C.3       2 UNK         0.0288 
     33 CB         26.8738   20.4458   -4.2283 C.3       2 UNK        -0.2113 
     34 N          27.1068   21.5085   -1.9907 N.am      2 UNK        -0.4145 
     35 C          28.0762   22.4329   -2.0762 C.2       1 UNK         0.5006 
     36 O          28.3673   23.0217   -3.1191 O.2       1 UNK        -0.5103 
     37 C          28.7055   28.0153    2.3101 C.2       5 UNK         0.5055 
     38 O          28.1187   29.0761    2.0834 O.2       5 UNK        -0.5220 
     39 N          30.0361   27.8776    2.2426 N.am      6 UNK        -0.4450 
     40 CA         30.9870   28.9484    1.9157 C.3       6 UNK         0.0367 
     41 CB         32.2811   28.3144    1.3729 C.3       6 UNK        -0.1929 
     42 C          31.2603   29.8920    3.1081 C.2       6 UNK         0.5070 
     43 O          32.3964   30.3350    3.2948 O.2       6 UNK        -0.5237 
     44 N          30.2265   30.1677    3.9134 N.am      7 UNK        -0.4739 
     45 CA         30.2696   31.0078    5.1086 C.3       7 UNK         0.0276 
     46 CB         28.9138   30.9335    5.8273 C.3       7 UNK        -0.1927 
     47 C          30.6258   32.4593    4.7585 C.2       7 UNK         0.5013 
     48 O          30.0650   33.0063    3.8064 O.2       7 UNK        -0.5193 
     49 N          31.5805   33.0336    5.5010 N.am      8 UNK        -0.4253 
     50 CA         32.2003   34.3578    5.3389 C.3       8 UNK         0.0242 
     51 CB         31.1618   35.4955    5.4014 C.3       8 UNK        -0.2000 
     52 C          33.1013   34.4852    4.0954 C.2       8 UNK         0.4948 
     53 O          34.1064   35.1935    4.1619 O.2       8 UNK        -0.5275 
     54 N          32.7578   33.7891    3.0030 N.am      9 UNK        -0.4246 
     55 CA         33.5606   33.6643    1.7854 C.3       9 UNK         0.0261 
     56 CB         32.7288   32.9767    0.6901 C.3       9 UNK        -0.1959 
     57 C          34.8775   32.9062    2.0244 C.2       9 UNK         0.5033 
     58 O          35.9085   33.3056    1.4804 O.2       9 UNK        -0.5390 
     59 N          34.8226   31.8478    2.8427 N.am      10 UNK        -0.4215 
     60 CA         35.9803   31.0590    3.2616 C.3       10 UNK         0.0240 
     61 CB         36.2538   29.9354    2.2446 C.3       10 UNK        -0.1982 
     62 C          35.7926   30.4879    4.6726 C.2       10 UNK         0.4970 
     63 O          36.7175   30.5673    5.4820 O.2       10 UNK        -0.4916 
     64 N          34.6176   29.9073    4.9348 N.am      11 UNK        -0.4279 
     65 CA         34.2772   29.2168    6.1850 C.3       11 UNK         0.1003 
     66 C          33.7274   30.1863    7.2641 C.2       11 UNK         0.5709 
     67 N          33.7664   29.7885    8.5279 N.am      11 UNK        -0.7358 
     68 O          33.2413   31.2786    6.9743 O.2       11 UNK        -0.4999 
     69 C69        33.3018   28.0408    5.9120 C.3       12 UNK        -0.0954 
     70 S70        34.0644   26.8146    4.7939 S.3       12 UNK        -0.2268 
     71 C71        33.5395   25.2323    5.5171 C.3       12 UNK         0.0203 
     72 H72        25.1577   23.2267    1.5888 H         1 UNK         0.0888 
     73 H73        25.9582   22.3001    2.8619 H         1 UNK         0.0888 
     74 H74        26.5476   23.9032    2.4505 H         1 UNK         0.0888 
     75 H75        27.7140   24.2118    0.3732 H         1 UNK         0.3017 
     76 H76        29.2745   21.8825   -0.4104 H         1 UNK         0.0873 
     77 H77        29.5063   24.7055   -1.5403 H         1 UNK         0.0745 
     78 H78        30.7205   23.4555   -1.5206 H         1 UNK         0.0745 
     79 H79        31.8099   22.7558    1.4373 H         1 UNK         0.0705 
     80 H80        30.0931   22.5031    1.6436 H         1 UNK         0.0705 
     81 H81        33.0624   24.1458    3.0789 H         1 UNK         0.1334 
     82 H82        31.0623   25.3605    6.6706 H         1 UNK         0.1417 
     83 H83        28.8393   23.5433    3.4818 H         1 UNK         0.1562 
     84 H84        28.6935   25.2898    6.8342 H         1 UNK         0.0748 
     85 H85        28.2502   23.6596    6.3904 H         1 UNK         0.0748 
     86 H86        28.7451   27.0446    4.8215 H         1 UNK         0.0940 
     87 H87        27.1272   27.6641    4.6596 H         1 UNK         0.0940 
     88 H88        28.4707   25.9019    2.5300 H         1 UNK         0.0703 
     89 H89        25.8107   27.0363    2.6950 H         1 UNK         0.3081 
     90 H90        24.3398   25.9056    1.0659 H         1 UNK         0.0719 
     91 H91        24.5190   28.4225    1.0454 H         1 UNK         0.0809 
     92 H92        25.1231   28.3767   -0.6051 H         1 UNK         0.0809 
     93 H93        23.4718   27.8734   -0.2503 H         1 UNK         0.0809 
     94 H94        25.8483   25.6039   -1.3825 H         1 UNK         0.2990 
     95 H95        23.1278   23.9864   -3.1350 H         1 UNK         0.0690 
     96 H96        25.6499   25.6562   -3.6840 H         1 UNK         0.0788 
     97 H97        24.0079   26.2252   -3.9638 H         1 UNK         0.0788 
     98 H98        24.6274   24.8611   -4.8746 H         1 UNK         0.0788 
     99 H99        25.4897   23.2159   -1.7256 H         1 UNK         0.2993 
    100 H100       25.5277   20.3289   -2.5701 H         1 UNK         0.0949 
    101 H101       27.4520   21.1730   -4.7989 H         1 UNK         0.0767 
    102 H102       27.5525   19.6579   -3.9018 H         1 UNK         0.0767 
    103 H103       26.1596   19.9907   -4.9157 H         1 UNK         0.0767 
    104 H104       26.9554   21.1071   -1.0673 H         1 UNK         0.3013 
    105 H105       30.4425   26.9794    2.4677 H         1 UNK         0.3121 
    106 H106       30.5593   29.5629    1.1208 H         1 UNK         0.0774 
    107 H107       32.9853   29.0787    1.0414 H         1 UNK         0.0815 
    108 H108       32.7837   27.7139    2.1320 H         1 UNK         0.0815 
    109 H109       32.0793   27.6707    0.5165 H         1 UNK         0.0815 
    110 H110       29.3141   29.8453    3.6153 H         1 UNK         0.2987 
    111 H111       31.0323   30.5976    5.7710 H         1 UNK         0.0949 
    112 H112       28.9225   31.5333    6.7385 H         1 UNK         0.0806 
    113 H113       28.1038   31.3064    5.1987 H         1 UNK         0.0806 
    114 H114       28.6721   29.9103    6.1158 H         1 UNK         0.0806 
    115 H115       32.0439   32.4455    6.1930 H         1 UNK         0.3010 
    116 H116       32.8576   34.4704    6.2029 H         1 UNK         0.0829 
    117 H117       30.5534   35.4285    6.3032 H         1 UNK         0.0813 
    118 H118       31.6554   36.4681    5.4146 H         1 UNK         0.0813 
    119 H119       30.4915   35.4884    4.5416 H         1 UNK         0.0813 
    120 H120       31.8767   33.2862    3.0339 H         1 UNK         0.3038 
    121 H121       33.8114   34.6714    1.4456 H         1 UNK         0.0769 
    122 H122       31.8228   33.5404    0.4672 H         1 UNK         0.0811 
    123 H123       33.2972   32.8972   -0.2376 H         1 UNK         0.0811 
    124 H124       32.4334   31.9672    0.9781 H         1 UNK         0.0811 
    125 H125       33.9170   31.5602    3.2035 H         1 UNK         0.3204 
    126 H126       36.8569   31.7097    3.3001 H         1 UNK         0.0748 
    127 H127       36.4840   30.3401    1.2590 H         1 UNK         0.0771 
    128 H128       37.1057   29.3277    2.5527 H         1 UNK         0.0771 
    129 H129       35.3964   29.2690    2.1408 H         1 UNK         0.0771 
    130 H130       33.8785   29.9215    4.2369 H         1 UNK         0.2980 
    131 H131       35.1955   28.7905    6.5943 H         1 UNK         0.0545 
    132 H132       34.1570   28.8952    8.7840 H         1 UNK         0.3459 
    133 H133       33.4065   30.4008    9.2428 H         1 UNK         0.3459 
    134 H134       33.0237   27.5506    6.8460 H         1 UNK         0.0616 
    135 H135       32.3727   28.3943    5.4632 H         1 UNK         0.0616 
    136 H136       33.5027   25.3005    6.6051 H         1 UNK         0.0634 
    137 H137       34.2966   24.4807    5.2889 H         1 UNK         0.0634 
@<TRIPOS>BOND
     1    1    2 1    
     2    1   72 1    
     3    1   73 1    
     4    1   74 1    
     5    2    3 2    
     6    2    4 am   BACKBONE|DICT|INTERRES
     7    4    5 1    
     8    4   75 1    
     9    5    6 1    
    10    5   35 1    
    11    5   76 1    
    12    6    7 1    
    13    6   77 1    
    14    6   78 1    
    15    7    8 1    
    16    8    9 1    
    17    8   79 1    
    18    8   80 1    
    19    9   10 ar   
    20    9   14 ar   
    21   10   11 ar   
    22   10   81 1    
    23   11   12 ar   
    24   11   71 1    
    25   12   13 ar   
    26   12   82 1    
    27   13   14 ar   
    28   13   15 1    
    29   14   83 1    
    30   15   16 1    
    31   15   84 1    
    32   15   85 1    
    33   16   17 1    
    34   17   18 1    
    35   17   86 1    
    36   17   87 1    
    37   18   19 1    
    38   18   37 1    
    39   18   88 1    
    40   19   20 am   BACKBONE|DICT|INTERRES
    41   19   89 1    
    42   20   21 2    
    43   20   22 1    
    44   22   23 1    
    45   22   24 1    
    46   22   90 1    
    47   23   91 1    
    48   23   92 1    
    49   23   93 1    
    50   24   25 am   BACKBONE|DICT|INTERRES
    51   24   94 1    
    52   25   26 2    
    53   25   27 1    
    54   27   28 1    
    55   27   29 1    
    56   27   95 1    
    57   28   96 1    
    58   28   97 1    
    59   28   98 1    
    60   29   30 am   BACKBONE|DICT|INTERRES
    61   29   99 1    
    62   30   31 2    
    63   30   32 1    
    64   32   33 1    
    65   32   34 1    
    66   32  100 1    
    67   33  101 1    
    68   33  102 1    
    69   33  103 1    
    70   34   35 am   BACKBONE|DICT|INTERRES
    71   34  104 1    
    72   35   36 2    
    73   37   38 2    
    74   37   39 am   BACKBONE|DICT|INTERRES
    75   39   40 1    
    76   39  105 1    
    77   40   41 1    
    78   40   42 1    
    79   40  106 1    
    80   41  107 1    
    81   41  108 1    
    82   41  109 1    
    83   42   43 2    
    84   42   44 am   BACKBONE|DICT|INTERRES
    85   44   45 1    
    86   44  110 1    
    87   45   46 1    
    88   45   47 1    
    89   45  111 1    
    90   46  112 1    
    91   46  113 1    
    92   46  114 1    
    93   47   48 2    
    94   47   49 am   BACKBONE|DICT|INTERRES
    95   49   50 1    
    96   49  115 1    
    97   50   51 1    
    98   50   52 1    
    99   50  116 1    
   100   51  117 1    
   101   51  118 1    
   102   51  119 1    
   103   52   53 2    
   104   52   54 am   BACKBONE|DICT|INTERRES
   105   54   55 1    
   106   54  120 1    
   107   55   56 1    
   108   55   57 1    
   109   55  121 1    
   110   56  122 1    
   111   56  123 1    
   112   56  124 1    
   113   57   58 2    
   114   57   59 am   BACKBONE|DICT|INTERRES
   115   59   60 1    
   116   59  125 1    
   117   60   61 1    
   118   60   62 1    
   119   60  126 1    
   120   61  127 1    
   121   61  128 1    
   122   61  129 1    
   123   62   63 2    
   124   62   64 am   BACKBONE|DICT|INTERRES
   125   64   65 1    
   126   64  130 1    
   127   65   66 1    
   128   65   69 1    
   129   65  131 1    
   130   66   67 am   BACKBONE|DICT|INTERRES
   131   66   68 2    
   132   67  132 1    
   133   67  133 1    
   134   69   70 1    
   135   69  134 1    
   136   69  135 1    
   137   70   71 1    
   138   71  136 1    
   139   71  137 1    
@<TRIPOS>SUBSTRUCTURE
     1 UNK         1 GROUP             0       ****    0 ROOT    
