@<TRIPOS>MOLECULE
3R136
137   139    1
SMALL
USER_CHARGES


@<TRIPOS>ATOM
      1 CA         32.7724   19.9373   -0.3428 C.3       0 UNK        -0.1979 
      2 C          32.5815   21.4136   -0.0270 C.2       0 UNK         0.4864 
      3 O          33.5338   22.1890   -0.1286 O.2       0 UNK        -0.5359 
      4 N          31.3619   21.8046    0.3635 N.am      1 UNK        -0.4318 
      5 CA         30.9808   23.1884    0.6704 C.3       1 UNK         0.0824 
      6 C6         29.6423   23.2792    1.4539 C.3       12 UNK        -0.0944 
      7 S7         29.4784   22.0537    2.7989 S.3       12 UNK        -0.2672 
      8 C8         30.3904   22.8446    4.1624 C.3       12 UNK         0.0333 
      9 C9         29.6158   23.9691    4.8393 C.ar      12 UNK        -0.0807 
     10 C10        30.2285   25.2073    5.0485 C.ar      12 UNK        -0.0894 
     11 C11        29.5547   26.2346    5.7174 C.ar      12 UNK        -0.0804 
     12 C12        28.2513   26.0153    6.1745 C.ar      12 UNK        -0.0824 
     13 C13        27.6251   24.7823    5.9709 C.ar      12 UNK        -0.0762 
     14 C14        28.3143   23.7618    5.3089 C.ar      12 UNK        -0.0782 
     15 C15        26.2144   24.5389    6.4869 C.3       12 UNK         0.0230 
     16 S16        24.9758   24.6721    5.1600 S.3       12 UNK        -0.2608 
     17 C17        24.8652   26.4796    4.9108 C.3       12 UNK        -0.0989 
     18 CA         25.7162   26.9945    3.7155 C.3       5 UNK         0.0716 
     19 N          25.4881   26.2611    2.4624 N.am      5 UNK        -0.4135 
     20 C          24.3508   26.1298    1.7682 C.2       4 UNK         0.5031 
     21 O          23.2834   26.6535    2.0905 O.2       4 UNK        -0.5229 
     22 CA         24.4557   25.3177    0.4589 C.3       4 UNK         0.0329 
     23 CB         23.0856   25.0966   -0.2094 C.3       4 UNK        -0.2001 
     24 N          25.3630   25.9414   -0.5139 N.am      4 UNK        -0.4303 
     25 C          26.6981   25.9806   -0.4154 C.2       3 UNK         0.5044 
     26 O          27.3268   25.4746    0.5200 O.2       3 UNK        -0.5152 
     27 CA         27.4545   26.7429   -1.5103 C.3       3 UNK         0.0319 
     28 CB         27.1212   28.2472   -1.4889 C.3       3 UNK        -0.2001 
     29 N          28.8788   26.5372   -1.2759 N.am      3 UNK        -0.4354 
     30 C          29.8631   26.6389   -2.1734 C.2       2 UNK         0.4964 
     31 O          29.6988   27.0304   -3.3295 O.2       2 UNK        -0.5047 
     32 CA         31.2713   26.2176   -1.7121 C.3       2 UNK         0.0288 
     33 CB         32.1369   27.4474   -1.3957 C.3       2 UNK        -0.2113 
     34 N          31.2687   25.3054   -0.5590 N.am      2 UNK        -0.4145 
     35 C          30.9079   24.0168   -0.6306 C.2       1 UNK         0.5006 
     36 O          30.5112   23.4811   -1.6703 O.2       1 UNK        -0.5103 
     37 C          25.6235   28.5331    3.5595 C.2       5 UNK         0.5055 
     38 O          25.6712   29.2450    4.5636 O.2       5 UNK        -0.5220 
     39 N          25.5101   29.0262    2.3179 N.am      6 UNK        -0.4450 
     40 CA         25.3794   30.4442    1.9688 C.3       6 UNK         0.0367 
     41 CB         24.4283   30.5590    0.7643 C.3       6 UNK        -0.1929 
     42 C          26.7284   31.1202    1.6567 C.2       6 UNK         0.5070 
     43 O          26.7477   32.3231    1.3909 O.2       6 UNK        -0.5237 
     44 N          27.8216   30.3465    1.6585 N.am      7 UNK        -0.4739 
     45 CA         29.1852   30.8148    1.4049 C.3       7 UNK         0.0276 
     46 CB         30.0308   29.6214    0.9243 C.3       7 UNK        -0.1927 
     47 C          29.8026   31.5157    2.6325 C.2       7 UNK         0.5013 
     48 O          29.1709   31.6035    3.6888 O.2       7 UNK        -0.5193 
     49 N          31.0318   32.0133    2.4647 N.am      8 UNK        -0.4253 
     50 CA         31.8046   32.7242    3.4802 C.3       8 UNK         0.0242 
     51 CB         31.5289   34.2360    3.3570 C.3       8 UNK        -0.2000 
     52 C          33.2953   32.3975    3.3109 C.2       8 UNK         0.4948 
     53 O          33.6612   31.6449    2.4013 O.2       8 UNK        -0.5275 
     54 N          34.1262   32.9753    4.1916 N.am      9 UNK        -0.4246 
     55 CA         35.5823   32.8124    4.2740 C.3       9 UNK         0.0261 
     56 CB         36.2811   33.4283    3.0387 C.3       9 UNK        -0.1959 
     57 C          35.9512   31.3442    4.5502 C.2       9 UNK         0.5033 
     58 O          35.6772   30.8608    5.6500 O.2       9 UNK        -0.5390 
     59 N          36.5332   30.6572    3.5580 N.am      10 UNK        -0.4215 
     60 CA         36.8329   29.2234    3.6026 C.3       10 UNK         0.0240 
     61 CB         37.7379   28.8569    2.4149 C.3       10 UNK        -0.1982 
     62 C          35.5727   28.3374    3.6131 C.2       10 UNK         0.4970 
     63 O          35.6327   27.2256    4.1383 O.2       10 UNK        -0.4916 
     64 N          34.4682   28.8386    3.0395 N.am      11 UNK        -0.4279 
     65 CA         33.1420   28.2016    2.9875 C.3       11 UNK         0.1003 
     66 C          33.0454   26.9058    2.1220 C.2       11 UNK         0.5709 
     67 N          34.0910   26.4984    1.4128 N.am      11 UNK        -0.7358 
     68 O          31.9899   26.2823    2.0402 O.2       11 UNK        -0.4999 
     69 C69        32.5245   28.0457    4.4077 C.3       12 UNK        -0.0954 
     70 S70        30.7396   28.4118    4.4533 S.3       12 UNK        -0.2268 
     71 C71        30.2398   27.5685    5.9848 C.3       12 UNK         0.0203 
     72 H72        33.0852   19.8131   -1.3792 H         1 UNK         0.0888 
     73 H73        33.5431   19.5126    0.2999 H         1 UNK         0.0888 
     74 H74        31.8555   19.3671   -0.1946 H         1 UNK         0.0888 
     75 H75        30.6142   21.1287    0.4244 H         1 UNK         0.3017 
     76 H76        31.7678   23.6108    1.2991 H         1 UNK         0.0873 
     77 H77        29.5116   24.2811    1.8683 H         1 UNK         0.0745 
     78 H78        28.7953   23.1198    0.7832 H         1 UNK         0.0745 
     79 H79        30.6168   22.0853    4.9120 H         1 UNK         0.0705 
     80 H80        31.3516   23.1992    3.7869 H         1 UNK         0.0705 
     81 H81        31.2369   25.3682    4.6962 H         1 UNK         0.1334 
     82 H82        27.7242   26.8027    6.6960 H         1 UNK         0.1417 
     83 H83        27.8365   22.8029    5.1598 H         1 UNK         0.1562 
     84 H84        25.9683   25.2284    7.2959 H         1 UNK         0.0748 
     85 H85        26.1568   23.5382    6.9178 H         1 UNK         0.0748 
     86 H86        25.1579   26.9810    5.8350 H         1 UNK         0.0940 
     87 H87        23.8139   26.7311    4.7602 H         1 UNK         0.0940 
     88 H88        26.7623   26.8048    3.9561 H         1 UNK         0.0703 
     89 H89        26.3139   25.8272    2.0549 H         1 UNK         0.3081 
     90 H90        24.8559   24.3362    0.7231 H         1 UNK         0.0719 
     91 H91        22.6293   26.0377   -0.5194 H         1 UNK         0.0809 
     92 H92        23.1711   24.4584   -1.0891 H         1 UNK         0.0809 
     93 H93        22.3915   24.6080    0.4759 H         1 UNK         0.0809 
     94 H94        24.9247   26.3968   -1.3018 H         1 UNK         0.2990 
     95 H95        27.1846   26.3140   -2.4775 H         1 UNK         0.0690 
     96 H96        27.7181   28.7989   -2.2153 H         1 UNK         0.0788 
     97 H97        27.3039   28.6849   -0.5086 H         1 UNK         0.0788 
     98 H98        26.0746   28.4250   -1.7373 H         1 UNK         0.0788 
     99 H99        29.0821   26.1520   -0.3612 H         1 UNK         0.2993 
    100 H100       31.7319   25.6960   -2.5542 H         1 UNK         0.0949 
    101 H101       32.1124   28.1688   -2.2137 H         1 UNK         0.0767 
    102 H102       31.7966   27.9586   -0.4972 H         1 UNK         0.0767 
    103 H103       33.1795   27.1672   -1.2469 H         1 UNK         0.0767 
    104 H104       31.5442   25.6910    0.3425 H         1 UNK         0.3013 
    105 H105       25.4606   28.3684    1.5549 H         1 UNK         0.3121 
    106 H106       24.9334   30.9857    2.8059 H         1 UNK         0.0774 
    107 H107       24.2492   31.6033    0.5048 H         1 UNK         0.0815 
    108 H108       24.8345   30.0695   -0.1213 H         1 UNK         0.0815 
    109 H109       23.4580   30.1113    0.9810 H         1 UNK         0.0815 
    110 H110       27.7216   29.3884    1.9556 H         1 UNK         0.2987 
    111 H111       29.1531   31.5529    0.6000 H         1 UNK         0.0949 
    112 H112       29.6382   29.2146   -0.0072 H         1 UNK         0.0806 
    113 H113       31.0621   29.9139    0.7273 H         1 UNK         0.0806 
    114 H114       30.0503   28.8129    1.6546 H         1 UNK         0.0806 
    115 H115       31.5374   31.8352    1.6065 H         1 UNK         0.3010 
    116 H116       31.5093   32.3787    4.4735 H         1 UNK         0.0829 
    117 H117       30.4645   34.4520    3.4525 H         1 UNK         0.0813 
    118 H118       32.0381   34.8034    4.1364 H         1 UNK         0.0813 
    119 H119       31.8625   34.6276    2.3951 H         1 UNK         0.0813 
    120 H120       33.7192   33.5459    4.9196 H         1 UNK         0.3038 
    121 H121       35.9102   33.3768    5.1484 H         1 UNK         0.0769 
    122 H122       35.9753   32.9595    2.1029 H         1 UNK         0.0811 
    123 H123       37.3658   33.3419    3.1162 H         1 UNK         0.0811 
    124 H124       36.0541   34.4913    2.9568 H         1 UNK         0.0811 
    125 H125       36.7055   31.1359    2.6855 H         1 UNK         0.3204 
    126 H126       37.3813   29.0225    4.5255 H         1 UNK         0.0748 
    127 H127       38.6719   29.4188    2.4396 H         1 UNK         0.0771 
    128 H128       37.9997   27.7979    2.4359 H         1 UNK         0.0771 
    129 H129       37.2519   29.0541    1.4584 H         1 UNK         0.0771 
    130 H130       34.5022   29.7747    2.6499 H         1 UNK         0.2980 
    131 H131       32.5433   28.9316    2.4435 H         1 UNK         0.0545 
    132 H132       34.0259   25.6620    0.8566 H         1 UNK         0.3459 
    133 H133       34.9629   26.9982    1.4666 H         1 UNK         0.3459 
    134 H134       32.7296   27.0565    4.8183 H         1 UNK         0.0616 
    135 H135       32.9876   28.7492    5.1019 H         1 UNK         0.0616 
    136 H136       31.1041   27.4119    6.6314 H         1 UNK         0.0634 
    137 H137       29.5720   28.2372    6.5299 H         1 UNK         0.0634 
@<TRIPOS>BOND
     1    1    2 1    
     2    1   72 1    
     3    1   73 1    
     4    1   74 1    
     5    2    3 2    
     6    2    4 am   BACKBONE|DICT|INTERRES
     7    4    5 1    
     8    4   75 1    
     9    5    6 1    
    10    5   35 1    
    11    5   76 1    
    12    6    7 1    
    13    6   77 1    
    14    6   78 1    
    15    7    8 1    
    16    8    9 1    
    17    8   79 1    
    18    8   80 1    
    19    9   10 ar   
    20    9   14 ar   
    21   10   11 ar   
    22   10   81 1    
    23   11   12 ar   
    24   11   71 1    
    25   12   13 ar   
    26   12   82 1    
    27   13   14 ar   
    28   13   15 1    
    29   14   83 1    
    30   15   16 1    
    31   15   84 1    
    32   15   85 1    
    33   16   17 1    
    34   17   18 1    
    35   17   86 1    
    36   17   87 1    
    37   18   19 1    
    38   18   37 1    
    39   18   88 1    
    40   19   20 am   BACKBONE|DICT|INTERRES
    41   19   89 1    
    42   20   21 2    
    43   20   22 1    
    44   22   23 1    
    45   22   24 1    
    46   22   90 1    
    47   23   91 1    
    48   23   92 1    
    49   23   93 1    
    50   24   25 am   BACKBONE|DICT|INTERRES
    51   24   94 1    
    52   25   26 2    
    53   25   27 1    
    54   27   28 1    
    55   27   29 1    
    56   27   95 1    
    57   28   96 1    
    58   28   97 1    
    59   28   98 1    
    60   29   30 am   BACKBONE|DICT|INTERRES
    61   29   99 1    
    62   30   31 2    
    63   30   32 1    
    64   32   33 1    
    65   32   34 1    
    66   32  100 1    
    67   33  101 1    
    68   33  102 1    
    69   33  103 1    
    70   34   35 am   BACKBONE|DICT|INTERRES
    71   34  104 1    
    72   35   36 2    
    73   37   38 2    
    74   37   39 am   BACKBONE|DICT|INTERRES
    75   39   40 1    
    76   39  105 1    
    77   40   41 1    
    78   40   42 1    
    79   40  106 1    
    80   41  107 1    
    81   41  108 1    
    82   41  109 1    
    83   42   43 2    
    84   42   44 am   BACKBONE|DICT|INTERRES
    85   44   45 1    
    86   44  110 1    
    87   45   46 1    
    88   45   47 1    
    89   45  111 1    
    90   46  112 1    
    91   46  113 1    
    92   46  114 1    
    93   47   48 2    
    94   47   49 am   BACKBONE|DICT|INTERRES
    95   49   50 1    
    96   49  115 1    
    97   50   51 1    
    98   50   52 1    
    99   50  116 1    
   100   51  117 1    
   101   51  118 1    
   102   51  119 1    
   103   52   53 2    
   104   52   54 am   BACKBONE|DICT|INTERRES
   105   54   55 1    
   106   54  120 1    
   107   55   56 1    
   108   55   57 1    
   109   55  121 1    
   110   56  122 1    
   111   56  123 1    
   112   56  124 1    
   113   57   58 2    
   114   57   59 am   BACKBONE|DICT|INTERRES
   115   59   60 1    
   116   59  125 1    
   117   60   61 1    
   118   60   62 1    
   119   60  126 1    
   120   61  127 1    
   121   61  128 1    
   122   61  129 1    
   123   62   63 2    
   124   62   64 am   BACKBONE|DICT|INTERRES
   125   64   65 1    
   126   64  130 1    
   127   65   66 1    
   128   65   69 1    
   129   65  131 1    
   130   66   67 am   BACKBONE|DICT|INTERRES
   131   66   68 2    
   132   67  132 1    
   133   67  133 1    
   134   69   70 1    
   135   69  134 1    
   136   69  135 1    
   137   70   71 1    
   138   71  136 1    
   139   71  137 1    
@<TRIPOS>SUBSTRUCTURE
     1 UNK         1 GROUP             0       ****    0 ROOT    
