@<TRIPOS>MOLECULE
3R136
137   139    1
SMALL
USER_CHARGES


@<TRIPOS>ATOM
      1 CA         26.7601   21.4792   -2.4226 C.3       0 UNK        -0.1979 
      2 C          27.2823   21.8975   -1.0568 C.2       0 UNK         0.4864 
      3 O          26.6626   21.5698   -0.0434 O.2       0 UNK        -0.5359 
      4 N          28.4063   22.6295   -1.0264 N.am      1 UNK        -0.4318 
      5 CA         29.0957   23.1377    0.1677 C.3       1 UNK         0.0824 
      6 C6         29.8620   22.0286    0.9447 C.3       12 UNK        -0.0944 
      7 S7         31.3237   21.4687    0.0050 S.3       12 UNK        -0.2672 
      8 C8         32.6920   22.3163    0.8721 C.3       12 UNK         0.0333 
      9 C9         32.4378   23.8092    1.0440 C.ar      12 UNK        -0.0807 
     10 C10        32.2559   24.3498    2.3223 C.ar      12 UNK        -0.0894 
     11 C11        31.9601   25.7065    2.4809 C.ar      12 UNK        -0.0804 
     12 C12        31.8387   26.5192    1.3532 C.ar      12 UNK        -0.0824 
     13 C13        32.0124   25.9927    0.0727 C.ar      12 UNK        -0.0762 
     14 C14        32.3425   24.6424   -0.0761 C.ar      12 UNK        -0.0782 
     15 C15        31.8057   26.8739   -1.1474 C.3       12 UNK         0.0230 
     16 S16        30.1289   26.6402   -1.8230 S.3       12 UNK        -0.2608 
     17 C17        29.3779   28.3065   -1.6974 C.3       12 UNK        -0.0989 
     18 CA         28.1929   28.4202   -0.6928 C.3       5 UNK         0.0716 
     19 N          27.2090   27.3430   -0.8463 N.am      5 UNK        -0.4135 
     20 C          26.2456   27.3412   -1.7748 C.2       4 UNK         0.5031 
     21 O          25.9522   28.3290   -2.4504 O.2       4 UNK        -0.5229 
     22 CA         25.5056   26.0233   -2.0458 C.3       4 UNK         0.0329 
     23 CB         26.3318   25.1498   -3.0050 C.3       4 UNK        -0.2001 
     24 N          25.1917   25.2487   -0.8387 N.am      4 UNK        -0.4303 
     25 C          23.9598   24.8073   -0.5337 C.2       3 UNK         0.5044 
     26 O          22.9509   25.1250   -1.1657 O.2       3 UNK        -0.5152 
     27 CA         23.7939   23.8172    0.6370 C.3       3 UNK         0.0319 
     28 CB         23.3059   22.4522    0.1211 C.3       3 UNK        -0.2001 
     29 N          25.0216   23.6140    1.4065 N.am      3 UNK        -0.4354 
     30 C          25.3733   24.3487    2.4710 C.2       2 UNK         0.4964 
     31 O          24.6599   25.2282    2.9524 O.2       2 UNK        -0.5047 
     32 CA         26.7565   24.0821    3.1009 C.3       2 UNK         0.0288 
     33 CB         26.6159   23.2169    4.3633 C.3       2 UNK        -0.2113 
     34 N          27.7254   23.4569    2.1963 N.am      2 UNK        -0.4145 
     35 C          28.1447   23.9823    1.0365 C.2       1 UNK         0.5006 
     36 O          27.7569   25.0711    0.6078 O.2       1 UNK        -0.5103 
     37 C          28.6093   28.6228    0.7761 C.2       5 UNK         0.5055 
     38 O          29.7296   29.0593    1.0414 O.2       5 UNK        -0.5220 
     39 N          27.6780   28.3803    1.7128 N.am      6 UNK        -0.4450 
     40 CA         27.8492   28.5456    3.1661 C.3       6 UNK         0.0367 
     41 CB         26.5394   28.1618    3.8715 C.3       6 UNK        -0.1929 
     42 C          28.2785   29.9532    3.6297 C.2       6 UNK         0.5070 
     43 O          28.7962   30.0898    4.7375 O.2       6 UNK        -0.5237 
     44 N          28.0563   30.9690    2.7851 N.am      7 UNK        -0.4739 
     45 CA         28.4548   32.3613    2.9998 C.3       7 UNK         0.0276 
     46 CB         27.6963   33.2479    1.9971 C.3       7 UNK        -0.1927 
     47 C          29.9742   32.6140    2.9056 C.2       7 UNK         0.5013 
     48 O          30.4019   33.7222    3.2333 O.2       7 UNK        -0.5193 
     49 N          30.7593   31.6239    2.4486 N.am      8 UNK        -0.4253 
     50 CA         32.2217   31.6802    2.3565 C.3       8 UNK         0.0242 
     51 CB         32.7450   30.3697    1.7454 C.3       8 UNK        -0.2000 
     52 C          32.8766   31.9292    3.7271 C.2       8 UNK         0.4948 
     53 O          32.6980   31.1216    4.6409 O.2       8 UNK        -0.5275 
     54 N          33.6371   33.0284    3.8379 N.am      9 UNK        -0.4246 
     55 CA         34.2683   33.5024    5.0774 C.3       9 UNK         0.0261 
     56 CB         34.9694   34.8445    4.8125 C.3       9 UNK        -0.1959 
     57 C          35.2463   32.5035    5.7204 C.2       9 UNK         0.5033 
     58 O          35.3725   32.4865    6.9458 O.2       9 UNK        -0.5390 
     59 N          35.8828   31.6618    4.8935 N.am      10 UNK        -0.4215 
     60 CA         36.7614   30.5659    5.3124 C.3       10 UNK         0.0240 
     61 CB         37.3983   29.9284    4.0666 C.3       10 UNK        -0.1982 
     62 C          36.0601   29.4902    6.1650 C.2       10 UNK         0.4970 
     63 O          36.7371   28.8145    6.9411 O.2       10 UNK        -0.4916 
     64 N          34.7354   29.3563    6.0188 N.am      11 UNK        -0.4279 
     65 CA         33.8912   28.4523    6.8127 C.3       11 UNK         0.1003 
     66 C          33.3847   29.0861    8.1418 C.2       11 UNK         0.5709 
     67 N          33.7065   30.3358    8.4615 N.am      11 UNK        -0.7358 
     68 O          32.6986   28.4214    8.9148 O.2       11 UNK        -0.4999 
     69 C69        32.7245   27.8749    5.9679 C.3       12 UNK        -0.0954 
     70 S70        33.3185   26.9949    4.4866 S.3       12 UNK        -0.2268 
     71 C71        31.7609   26.3046    3.8630 C.3       12 UNK         0.0203 
     72 H72        26.7759   20.3934   -2.5115 H         1 UNK         0.0888 
     73 H73        25.7319   21.8161   -2.5503 H         1 UNK         0.0888 
     74 H74        27.3570   21.8960   -3.2336 H         1 UNK         0.0888 
     75 H75        28.8529   22.8688   -1.9002 H         1 UNK         0.3017 
     76 H76        29.8216   23.8583   -0.2039 H         1 UNK         0.0873 
     77 H77        30.1955   22.3779    1.9231 H         1 UNK         0.0745 
     78 H78        29.2196   21.1667    1.1330 H         1 UNK         0.0745 
     79 H79        32.8446   21.8359    1.8399 H         1 UNK         0.0705 
     80 H80        33.6145   22.1702    0.3086 H         1 UNK         0.0705 
     81 H81        32.3339   23.7150    3.1945 H         1 UNK         0.1334 
     82 H82        31.6017   27.5643    1.4753 H         1 UNK         0.1417 
     83 H83        32.4674   24.2257   -1.0666 H         1 UNK         0.1562 
     84 H84        32.5368   26.6195   -1.9160 H         1 UNK         0.0748 
     85 H85        31.9840   27.9193   -0.8925 H         1 UNK         0.0748 
     86 H86        29.0055   28.5488   -2.6938 H         1 UNK         0.0940 
     87 H87        30.1394   29.0625   -1.5004 H         1 UNK         0.0940 
     88 H88        27.6898   29.3613   -0.9251 H         1 UNK         0.0703 
     89 H89        27.4209   26.4878   -0.3310 H         1 UNK         0.3081 
     90 H90        24.5866   26.2968   -2.5684 H         1 UNK         0.0719 
     91 H91        27.2740   24.8367   -2.5542 H         1 UNK         0.0809 
     92 H92        25.7816   24.2565   -3.2994 H         1 UNK         0.0809 
     93 H93        26.5749   25.6940   -3.9188 H         1 UNK         0.0809 
     94 H94        25.9705   24.9925   -0.2417 H         1 UNK         0.2990 
     95 H95        23.0167   24.2198    1.2902 H         1 UNK         0.0690 
     96 H96        23.1558   21.7490    0.9405 H         1 UNK         0.0788 
     97 H97        24.0143   22.0062   -0.5773 H         1 UNK         0.0788 
     98 H98        22.3523   22.5475   -0.4000 H         1 UNK         0.0788 
     99 H99        25.6558   22.8961    1.0647 H         1 UNK         0.2993 
    100 H100       27.1717   25.0476    3.3935 H         1 UNK         0.0949 
    101 H101       25.9256   23.6731    5.0745 H         1 UNK         0.0767 
    102 H102       26.2335   22.2223    4.1297 H         1 UNK         0.0767 
    103 H103       27.5722   23.0996    4.8737 H         1 UNK         0.0767 
    104 H104       28.0427   22.5317    2.4464 H         1 UNK         0.3013 
    105 H105       26.7755   28.0503    1.4024 H         1 UNK         0.3121 
    106 H106       28.6298   27.8504    3.4805 H         1 UNK         0.0774 
    107 H107       26.6441   28.2250    4.9557 H         1 UNK         0.0815 
    108 H108       25.7184   28.8203    3.5849 H         1 UNK         0.0815 
    109 H109       26.2442   27.1424    3.6398 H         1 UNK         0.0815 
    110 H110       27.6226   30.7557    1.8992 H         1 UNK         0.2987 
    111 H111       28.1495   32.6472    4.0089 H         1 UNK         0.0949 
    112 H112       27.9589   33.0066    0.9663 H         1 UNK         0.0806 
    113 H113       26.6171   33.1378    2.1053 H         1 UNK         0.0806 
    114 H114       27.9276   34.3027    2.1530 H         1 UNK         0.0806 
    115 H115       30.3243   30.7475    2.1813 H         1 UNK         0.3010 
    116 H116       32.4766   32.4997    1.6815 H         1 UNK         0.0829 
    117 H117       32.3072   30.1827    0.7646 H         1 UNK         0.0813 
    118 H118       33.8278   30.4001    1.6184 H         1 UNK         0.0813 
    119 H119       32.5168   29.5148    2.3835 H         1 UNK         0.0813 
    120 H120       33.7217   33.6356    3.0349 H         1 UNK         0.3038 
    121 H121       33.4671   33.6736    5.7995 H         1 UNK         0.0769 
    122 H122       35.7595   34.7484    4.0667 H         1 UNK         0.0811 
    123 H123       35.4273   35.2322    5.7239 H         1 UNK         0.0811 
    124 H124       34.2647   35.5990    4.4621 H         1 UNK         0.0811 
    125 H125       35.7111   31.7545    3.9031 H         1 UNK         0.3204 
    126 H126       37.5568   30.9969    5.9240 H         1 UNK         0.0748 
    127 H127       38.0845   29.1274    4.3456 H         1 UNK         0.0771 
    128 H128       36.6458   29.4963    3.4052 H         1 UNK         0.0771 
    129 H129       37.9719   30.6581    3.4946 H         1 UNK         0.0771 
    130 H130       34.2314   29.9731    5.3907 H         1 UNK         0.2980 
    131 H131       34.5017   27.6017    7.1213 H         1 UNK         0.0545 
    132 H132       34.2816   30.9026    7.8507 H         1 UNK         0.3459 
    133 H133       33.3723   30.7194    9.3309 H         1 UNK         0.3459 
    134 H134       32.1319   27.1751    6.5600 H         1 UNK         0.0616 
    135 H135       32.0455   28.6699    5.6541 H         1 UNK         0.0616 
    136 H136       31.0064   27.0920    3.8220 H         1 UNK         0.0634 
    137 H137       31.3903   25.5503    4.5588 H         1 UNK         0.0634 
@<TRIPOS>BOND
     1    1    2 1    
     2    1   72 1    
     3    1   73 1    
     4    1   74 1    
     5    2    3 2    
     6    2    4 am   BACKBONE|DICT|INTERRES
     7    4    5 1    
     8    4   75 1    
     9    5    6 1    
    10    5   35 1    
    11    5   76 1    
    12    6    7 1    
    13    6   77 1    
    14    6   78 1    
    15    7    8 1    
    16    8    9 1    
    17    8   79 1    
    18    8   80 1    
    19    9   10 ar   
    20    9   14 ar   
    21   10   11 ar   
    22   10   81 1    
    23   11   12 ar   
    24   11   71 1    
    25   12   13 ar   
    26   12   82 1    
    27   13   14 ar   
    28   13   15 1    
    29   14   83 1    
    30   15   16 1    
    31   15   84 1    
    32   15   85 1    
    33   16   17 1    
    34   17   18 1    
    35   17   86 1    
    36   17   87 1    
    37   18   19 1    
    38   18   37 1    
    39   18   88 1    
    40   19   20 am   BACKBONE|DICT|INTERRES
    41   19   89 1    
    42   20   21 2    
    43   20   22 1    
    44   22   23 1    
    45   22   24 1    
    46   22   90 1    
    47   23   91 1    
    48   23   92 1    
    49   23   93 1    
    50   24   25 am   BACKBONE|DICT|INTERRES
    51   24   94 1    
    52   25   26 2    
    53   25   27 1    
    54   27   28 1    
    55   27   29 1    
    56   27   95 1    
    57   28   96 1    
    58   28   97 1    
    59   28   98 1    
    60   29   30 am   BACKBONE|DICT|INTERRES
    61   29   99 1    
    62   30   31 2    
    63   30   32 1    
    64   32   33 1    
    65   32   34 1    
    66   32  100 1    
    67   33  101 1    
    68   33  102 1    
    69   33  103 1    
    70   34   35 am   BACKBONE|DICT|INTERRES
    71   34  104 1    
    72   35   36 2    
    73   37   38 2    
    74   37   39 am   BACKBONE|DICT|INTERRES
    75   39   40 1    
    76   39  105 1    
    77   40   41 1    
    78   40   42 1    
    79   40  106 1    
    80   41  107 1    
    81   41  108 1    
    82   41  109 1    
    83   42   43 2    
    84   42   44 am   BACKBONE|DICT|INTERRES
    85   44   45 1    
    86   44  110 1    
    87   45   46 1    
    88   45   47 1    
    89   45  111 1    
    90   46  112 1    
    91   46  113 1    
    92   46  114 1    
    93   47   48 2    
    94   47   49 am   BACKBONE|DICT|INTERRES
    95   49   50 1    
    96   49  115 1    
    97   50   51 1    
    98   50   52 1    
    99   50  116 1    
   100   51  117 1    
   101   51  118 1    
   102   51  119 1    
   103   52   53 2    
   104   52   54 am   BACKBONE|DICT|INTERRES
   105   54   55 1    
   106   54  120 1    
   107   55   56 1    
   108   55   57 1    
   109   55  121 1    
   110   56  122 1    
   111   56  123 1    
   112   56  124 1    
   113   57   58 2    
   114   57   59 am   BACKBONE|DICT|INTERRES
   115   59   60 1    
   116   59  125 1    
   117   60   61 1    
   118   60   62 1    
   119   60  126 1    
   120   61  127 1    
   121   61  128 1    
   122   61  129 1    
   123   62   63 2    
   124   62   64 am   BACKBONE|DICT|INTERRES
   125   64   65 1    
   126   64  130 1    
   127   65   66 1    
   128   65   69 1    
   129   65  131 1    
   130   66   67 am   BACKBONE|DICT|INTERRES
   131   66   68 2    
   132   67  132 1    
   133   67  133 1    
   134   69   70 1    
   135   69  134 1    
   136   69  135 1    
   137   70   71 1    
   138   71  136 1    
   139   71  137 1    
@<TRIPOS>SUBSTRUCTURE
     1 UNK         1 GROUP             0       ****    0 ROOT    
