@<TRIPOS>MOLECULE
3R136
137   139    1
SMALL
USER_CHARGES


@<TRIPOS>ATOM
      1 CA         31.3619   19.3575   -1.4475 C.3       0 UNK        -0.1979 
      2 C          31.7072   20.5453   -0.5618 C.2       0 UNK         0.4864 
      3 O          32.3078   21.5091   -1.0379 O.2       0 UNK        -0.5359 
      4 N          31.3300   20.4845    0.7223 N.am      1 UNK        -0.4318 
      5 CA         31.5611   21.5378    1.7202 C.3       1 UNK         0.0824 
      6 C6         31.3869   21.0015    3.1641 C.3       12 UNK        -0.0944 
      7 S7         29.7167   20.3368    3.5105 S.3       12 UNK        -0.2672 
      8 C8         29.2835   21.1778    5.0665 C.3       12 UNK         0.0333 
      9 C9         28.8529   22.6282    4.8746 C.ar      12 UNK        -0.0807 
     10 C10        29.7210   23.6731    5.2050 C.ar      12 UNK        -0.0894 
     11 C11        29.2956   25.0043    5.1386 C.ar      12 UNK        -0.0804 
     12 C12        27.9865   25.2879    4.7328 C.ar      12 UNK        -0.0824 
     13 C13        27.1048   24.2524    4.4008 C.ar      12 UNK        -0.0762 
     14 C14        27.5513   22.9266    4.4584 C.ar      12 UNK        -0.0782 
     15 C15        25.6430   24.5468    4.0778 C.3       12 UNK         0.0230 
     16 S16        25.3870   25.1733    2.3866 S.3       12 UNK        -0.2608 
     17 C17        25.5562   26.9795    2.6061 C.3       12 UNK        -0.0989 
     18 CA         26.7860   27.5317    1.8413 C.3       5 UNK         0.0716 
     19 N          26.7166   27.3315    0.3884 N.am      5 UNK        -0.4135 
     20 C          25.8551   27.8875   -0.4771 C.2       4 UNK         0.5031 
     21 O          24.9697   28.6759   -0.1426 O.2       4 UNK        -0.5229 
     22 CA         25.9665   27.4811   -1.9646 C.3       4 UNK         0.0329 
     23 CB         25.8578   28.6969   -2.9102 C.3       4 UNK        -0.2001 
     24 N          27.1345   26.6451   -2.2861 N.am      4 UNK        -0.4303 
     25 C          28.4290   27.0013   -2.2978 C.2       3 UNK         0.5044 
     26 O          28.8323   28.1497   -2.1072 O.2       3 UNK        -0.5152 
     27 CA         29.4312   25.8329   -2.4476 C.3       3 UNK         0.0319 
     28 CB         30.9017   26.2862   -2.3238 C.3       3 UNK        -0.2001 
     29 N          29.1476   24.7417   -1.4972 N.am      3 UNK        -0.4354 
     30 C          29.0245   24.8779   -0.1669 C.2       2 UNK         0.4964 
     31 O          29.2100   25.9389    0.4234 O.2       2 UNK        -0.5047 
     32 CA         28.5319   23.6624    0.6308 C.3       2 UNK         0.0288 
     33 CB         27.2737   23.0289    0.0094 C.3       2 UNK        -0.2113 
     34 N          29.5534   22.6388    0.8226 N.am      2 UNK        -0.4145 
     35 C          30.7037   22.8004    1.4935 C.2       1 UNK         0.5006 
     36 O          31.0908   23.8717    1.9576 O.2       1 UNK        -0.5103 
     37 C          27.1401   28.9887    2.1946 C.2       5 UNK         0.5055 
     38 O          26.5772   29.5617    3.1305 O.2       5 UNK        -0.5220 
     39 N          28.0931   29.5597    1.4441 N.am      6 UNK        -0.4450 
     40 CA         28.6274   30.9096    1.6232 C.3       6 UNK         0.0367 
     41 CB         29.3145   31.3449    0.3156 C.3       6 UNK        -0.1929 
     42 C          29.5751   30.9841    2.8343 C.2       6 UNK         0.5070 
     43 O          30.7681   31.2415    2.6712 O.2       6 UNK        -0.5237 
     44 N          29.0402   30.7386    4.0372 N.am      7 UNK        -0.4739 
     45 CA         29.7745   30.6838    5.3082 C.3       7 UNK         0.0276 
     46 CB         28.8052   30.3131    6.4403 C.3       7 UNK        -0.1927 
     47 C          30.5450   31.9726    5.6479 C.2       7 UNK         0.5013 
     48 O          31.6176   31.8923    6.2459 O.2       7 UNK        -0.5193 
     49 N          30.0335   33.1256    5.1927 N.am      8 UNK        -0.4253 
     50 CA         30.6996   34.4316    5.2633 C.3       8 UNK         0.0242 
     51 CB         29.7184   35.5224    4.8046 C.3       8 UNK        -0.2000 
     52 C          32.0088   34.5108    4.4504 C.2       8 UNK         0.4948 
     53 O          32.8699   35.3256    4.7826 O.2       8 UNK        -0.5275 
     54 N          32.1454   33.6577    3.4259 N.am      9 UNK        -0.4246 
     55 CA         33.3501   33.4747    2.6145 C.3       9 UNK         0.0261 
     56 CB         32.9502   33.5216    1.1279 C.3       9 UNK        -0.1959 
     57 C          34.0675   32.1535    2.9619 C.2       9 UNK         0.5033 
     58 O          34.9077   31.7065    2.1800 O.2       9 UNK        -0.5390 
     59 N          33.7250   31.5496    4.1121 N.am      10 UNK        -0.4215 
     60 CA         34.2169   30.2715    4.6395 C.3       10 UNK         0.0240 
     61 CB         35.7341   30.3300    4.9249 C.3       10 UNK        -0.1982 
     62 C          33.8027   29.0405    3.8056 C.2       10 UNK         0.4970 
     63 O          34.5054   28.0294    3.8545 O.2       10 UNK        -0.4916 
     64 N          32.6619   29.1374    3.1024 N.am      11 UNK        -0.4279 
     65 CA         32.0019   28.0924    2.2974 C.3       11 UNK         0.1003 
     66 C          32.9404   27.3266    1.3146 C.2       11 UNK         0.5709 
     67 N          32.7579   26.0336    1.0892 N.am      11 UNK        -0.7358 
     68 O          33.8093   27.9284    0.6859 O.2       11 UNK        -0.4999 
     69 C69        30.9881   27.2371    3.1199 C.3       12 UNK        -0.0954 
     70 S70        31.6863   26.3069    4.5223 S.3       12 UNK        -0.2268 
     71 C71        30.2271   26.1219    5.5949 C.3       12 UNK         0.0203 
     72 H72        30.8307   18.5799   -0.8988 H         1 UNK         0.0888 
     73 H73        30.7320   19.6781   -2.2768 H         1 UNK         0.0888 
     74 H74        32.2712   18.9203   -1.8593 H         1 UNK         0.0888 
     75 H75        30.8420   19.6678    1.0638 H         1 UNK         0.3017 
     76 H76        32.6009   21.8562    1.6163 H         1 UNK         0.0873 
     77 H77        31.6340   21.7822    3.8858 H         1 UNK         0.0745 
     78 H78        32.1078   20.2030    3.3458 H         1 UNK         0.0745 
     79 H79        30.1240   21.1122    5.7595 H         1 UNK         0.0705 
     80 H80        28.4685   20.6266    5.5379 H         1 UNK         0.0705 
     81 H81        30.7233   23.4533    5.5460 H         1 UNK         0.1334 
     82 H82        27.6415   26.3119    4.7149 H         1 UNK         0.1417 
     83 H83        26.8714   22.1185    4.2243 H         1 UNK         0.1562 
     84 H84        25.2339   25.2463    4.8080 H         1 UNK         0.0748 
     85 H85        25.0509   23.6370    4.1874 H         1 UNK         0.0748 
     86 H86        25.6287   27.2070    3.6704 H         1 UNK         0.0940 
     87 H87        24.6397   27.4624    2.2635 H         1 UNK         0.0940 
     88 H88        27.6470   26.9566    2.1835 H         1 UNK         0.0703 
     89 H89        27.4550   26.7416    0.0230 H         1 UNK         0.3081 
     90 H90        25.0983   26.8486   -2.1556 H         1 UNK         0.0719 
     91 H91        26.6345   29.4367   -2.7149 H         1 UNK         0.0809 
     92 H92        25.9331   28.3967   -3.9552 H         1 UNK         0.0809 
     93 H93        24.8984   29.2011   -2.7884 H         1 UNK         0.0809 
     94 H94        26.9262   25.6683   -2.4428 H         1 UNK         0.2990 
     95 H95        29.2908   25.4269   -3.4504 H         1 UNK         0.0690 
     96 H96        31.5870   25.4486   -2.4532 H         1 UNK         0.0788 
     97 H97        31.1071   26.7372   -1.3522 H         1 UNK         0.0788 
     98 H98        31.1471   27.0284   -3.0843 H         1 UNK         0.0788 
     99 H99        28.9761   23.8323   -1.9031 H         1 UNK         0.2993 
    100 H100       28.2601   24.0308    1.6230 H         1 UNK         0.0949 
    101 H101       26.8243   22.3078    0.6927 H         1 UNK         0.0767 
    102 H102       26.5149   23.7850   -0.1975 H         1 UNK         0.0767 
    103 H103       27.4879   22.5111   -0.9260 H         1 UNK         0.0767 
    104 H104       29.3356   21.7117    0.4904 H         1 UNK         0.3013 
    105 H105       28.5044   29.0106    0.7014 H         1 UNK         0.3121 
    106 H106       27.7980   31.5944    1.8119 H         1 UNK         0.0774 
    107 H107       29.6989   32.3626    0.3962 H         1 UNK         0.0815 
    108 H108       30.1559   30.6973    0.0646 H         1 UNK         0.0815 
    109 H109       28.6186   31.3278   -0.5235 H         1 UNK         0.0815 
    110 H110       28.0551   30.4890    4.0604 H         1 UNK         0.2987 
    111 H111       30.5139   29.8846    5.2201 H         1 UNK         0.0949 
    112 H112       28.0187   31.0594    6.5590 H         1 UNK         0.0806 
    113 H113       28.3286   29.3501    6.2552 H         1 UNK         0.0806 
    114 H114       29.3293   30.2356    7.3940 H         1 UNK         0.0806 
    115 H115       29.1477   33.0896    4.7092 H         1 UNK         0.3010 
    116 H116       30.9558   34.6167    6.3087 H         1 UNK         0.0829 
    117 H117       28.8221   35.5379    5.4250 H         1 UNK         0.0813 
    118 H118       30.1742   36.5113    4.8738 H         1 UNK         0.0813 
    119 H119       29.4093   35.3785    3.7684 H         1 UNK         0.0813 
    120 H120       31.4036   32.9888    3.2382 H         1 UNK         0.3038 
    121 H121       34.0600   34.2826    2.8023 H         1 UNK         0.0769 
    122 H122       33.8278   33.4686    0.4825 H         1 UNK         0.0811 
    123 H123       32.4286   34.4477    0.8863 H         1 UNK         0.0811 
    124 H124       32.2982   32.6891    0.8607 H         1 UNK         0.0811 
    125 H125       33.0227   31.9973    4.6910 H         1 UNK         0.3204 
    126 H126       33.7178   30.1449    5.6013 H         1 UNK         0.0748 
    127 H127       36.0625   29.4501    5.4796 H         1 UNK         0.0771 
    128 H128       36.3187   30.3689    4.0055 H         1 UNK         0.0771 
    129 H129       35.9919   31.2025    5.5251 H         1 UNK         0.0771 
    130 H130       32.1842   30.0329    3.0837 H         1 UNK         0.2980 
    131 H131       31.3806   28.6659    1.6089 H         1 UNK         0.0545 
    132 H132       32.0396   25.5001    1.5725 H         1 UNK         0.3459 
    133 H133       33.3603   25.5674    0.4320 H         1 UNK         0.3459 
    134 H134       30.2122   27.8990    3.5058 H         1 UNK         0.0616 
    135 H135       30.4640   26.5292    2.4822 H         1 UNK         0.0616 
    136 H136       30.5719   25.8954    6.6047 H         1 UNK         0.0634 
    137 H137       29.6993   27.0741    5.6645 H         1 UNK         0.0634 
@<TRIPOS>BOND
     1    1    2 1    
     2    1   72 1    
     3    1   73 1    
     4    1   74 1    
     5    2    3 2    
     6    2    4 am   BACKBONE|DICT|INTERRES
     7    4    5 1    
     8    4   75 1    
     9    5    6 1    
    10    5   35 1    
    11    5   76 1    
    12    6    7 1    
    13    6   77 1    
    14    6   78 1    
    15    7    8 1    
    16    8    9 1    
    17    8   79 1    
    18    8   80 1    
    19    9   10 ar   
    20    9   14 ar   
    21   10   11 ar   
    22   10   81 1    
    23   11   12 ar   
    24   11   71 1    
    25   12   13 ar   
    26   12   82 1    
    27   13   14 ar   
    28   13   15 1    
    29   14   83 1    
    30   15   16 1    
    31   15   84 1    
    32   15   85 1    
    33   16   17 1    
    34   17   18 1    
    35   17   86 1    
    36   17   87 1    
    37   18   19 1    
    38   18   37 1    
    39   18   88 1    
    40   19   20 am   BACKBONE|DICT|INTERRES
    41   19   89 1    
    42   20   21 2    
    43   20   22 1    
    44   22   23 1    
    45   22   24 1    
    46   22   90 1    
    47   23   91 1    
    48   23   92 1    
    49   23   93 1    
    50   24   25 am   BACKBONE|DICT|INTERRES
    51   24   94 1    
    52   25   26 2    
    53   25   27 1    
    54   27   28 1    
    55   27   29 1    
    56   27   95 1    
    57   28   96 1    
    58   28   97 1    
    59   28   98 1    
    60   29   30 am   BACKBONE|DICT|INTERRES
    61   29   99 1    
    62   30   31 2    
    63   30   32 1    
    64   32   33 1    
    65   32   34 1    
    66   32  100 1    
    67   33  101 1    
    68   33  102 1    
    69   33  103 1    
    70   34   35 am   BACKBONE|DICT|INTERRES
    71   34  104 1    
    72   35   36 2    
    73   37   38 2    
    74   37   39 am   BACKBONE|DICT|INTERRES
    75   39   40 1    
    76   39  105 1    
    77   40   41 1    
    78   40   42 1    
    79   40  106 1    
    80   41  107 1    
    81   41  108 1    
    82   41  109 1    
    83   42   43 2    
    84   42   44 am   BACKBONE|DICT|INTERRES
    85   44   45 1    
    86   44  110 1    
    87   45   46 1    
    88   45   47 1    
    89   45  111 1    
    90   46  112 1    
    91   46  113 1    
    92   46  114 1    
    93   47   48 2    
    94   47   49 am   BACKBONE|DICT|INTERRES
    95   49   50 1    
    96   49  115 1    
    97   50   51 1    
    98   50   52 1    
    99   50  116 1    
   100   51  117 1    
   101   51  118 1    
   102   51  119 1    
   103   52   53 2    
   104   52   54 am   BACKBONE|DICT|INTERRES
   105   54   55 1    
   106   54  120 1    
   107   55   56 1    
   108   55   57 1    
   109   55  121 1    
   110   56  122 1    
   111   56  123 1    
   112   56  124 1    
   113   57   58 2    
   114   57   59 am   BACKBONE|DICT|INTERRES
   115   59   60 1    
   116   59  125 1    
   117   60   61 1    
   118   60   62 1    
   119   60  126 1    
   120   61  127 1    
   121   61  128 1    
   122   61  129 1    
   123   62   63 2    
   124   62   64 am   BACKBONE|DICT|INTERRES
   125   64   65 1    
   126   64  130 1    
   127   65   66 1    
   128   65   69 1    
   129   65  131 1    
   130   66   67 am   BACKBONE|DICT|INTERRES
   131   66   68 2    
   132   67  132 1    
   133   67  133 1    
   134   69   70 1    
   135   69  134 1    
   136   69  135 1    
   137   70   71 1    
   138   71  136 1    
   139   71  137 1    
@<TRIPOS>SUBSTRUCTURE
     1 UNK         1 GROUP             0       ****    0 ROOT    
