@<TRIPOS>MOLECULE
3R136
137   139    1
SMALL
USER_CHARGES


@<TRIPOS>ATOM
      1 CA         31.9780   18.9071    0.6101 C.3       0 UNK        -0.1979 
      2 C          31.6860   20.3679    0.9205 C.2       0 UNK         0.4864 
      3 O          32.5933   21.1993    0.8590 O.2       0 UNK        -0.5359 
      4 N          30.4307   20.6835    1.2627 N.am      1 UNK        -0.4318 
      5 CA         29.9586   22.0420    1.5475 C.3       1 UNK         0.0824 
      6 C6         28.5985   22.0355    2.2878 C.3       12 UNK        -0.0944 
      7 S7         28.6662   21.2477    3.9319 S.3       12 UNK        -0.2672 
      8 C8         29.7991   22.3388    4.8620 C.3       12 UNK         0.0333 
      9 C9         29.4649   23.8209    4.7289 C.ar      12 UNK        -0.0807 
     10 C10        30.4199   24.7162    4.2344 C.ar      12 UNK        -0.0894 
     11 C11        30.1266   26.0790    4.1324 C.ar      12 UNK        -0.0804 
     12 C12        28.8695   26.5457    4.5257 C.ar      12 UNK        -0.0824 
     13 C13        27.9020   25.6604    5.0092 C.ar      12 UNK        -0.0762 
     14 C14        28.2086   24.3003    5.1145 C.ar      12 UNK        -0.0782 
     15 C15        26.5342   26.1699    5.4412 C.3       12 UNK         0.0230 
     16 S16        25.3981   26.3603    4.0287 S.3       12 UNK        -0.2608 
     17 C17        25.8713   27.9997    3.3767 C.3       12 UNK        -0.0989 
     18 CA         26.5062   27.9262    1.9581 C.3       5 UNK         0.0716 
     19 N          25.6115   27.3455    0.9490 N.am      5 UNK        -0.4135 
     20 C          24.4576   27.8713    0.5041 C.2       4 UNK         0.5031 
     21 O          23.9593   28.9031    0.9577 O.2       4 UNK        -0.5229 
     22 CA         23.7446   27.1391   -0.6566 C.3       4 UNK         0.0329 
     23 CB         22.9463   28.1091   -1.5543 C.3       4 UNK        -0.2001 
     24 N          24.6290   26.3011   -1.4795 N.am      4 UNK        -0.4303 
     25 C          25.7340   26.6931   -2.1297 C.2       3 UNK         0.5044 
     26 O          26.1685   27.8462   -2.1330 O.2       3 UNK        -0.5152 
     27 CA         26.5397   25.5864   -2.8266 C.3       3 UNK         0.0319 
     28 CB         26.6337   25.8490   -4.3384 C.3       3 UNK        -0.2001 
     29 N          27.8897   25.4717   -2.2671 N.am      3 UNK        -0.4354 
     30 C          28.1784   25.2497   -0.9771 C.2       2 UNK         0.4964 
     31 O          27.3318   25.1237   -0.0869 O.2       2 UNK        -0.5047 
     32 CA         29.6693   25.2013   -0.6113 C.3       2 UNK         0.0288 
     33 CB         30.1460   26.5792   -0.1275 C.3       2 UNK        -0.2113 
     34 N          29.9167   24.2170    0.4410 N.am      2 UNK        -0.4145 
     35 C          29.8517   22.8903    0.2658 C.2       1 UNK         0.5006 
     36 O          29.6742   22.3480   -0.8294 O.2       1 UNK        -0.5103 
     37 C          27.1035   29.2835    1.5075 C.2       5 UNK         0.5055 
     38 O          27.4094   30.1204    2.3570 O.2       5 UNK        -0.5220 
     39 N          27.2792   29.4948    0.1913 N.am      6 UNK        -0.4450 
     40 CA         27.7359   30.7639   -0.3956 C.3       6 UNK         0.0367 
     41 CB         27.6765   30.6697   -1.9283 C.3       6 UNK        -0.1929 
     42 C          29.1333   31.2353    0.0525 C.2       6 UNK         0.5070 
     43 O          29.3975   32.4372    0.0208 O.2       6 UNK        -0.5237 
     44 N          29.9946   30.2982    0.4686 N.am      7 UNK        -0.4739 
     45 CA         31.3538   30.5637    0.9492 C.3       7 UNK         0.0276 
     46 CB         32.2943   29.4572    0.4361 C.3       7 UNK        -0.1927 
     47 C          31.4371   30.6949    2.4823 C.2       7 UNK         0.5013 
     48 O          32.5295   30.5227    3.0218 O.2       7 UNK        -0.5193 
     49 N          30.3096   30.9578    3.1660 N.am      8 UNK        -0.4253 
     50 CA         30.1952   31.0805    4.6274 C.3       8 UNK         0.0242 
     51 CB         28.8009   31.6104    5.0005 C.3       8 UNK        -0.2000 
     52 C          31.2859   31.9617    5.2663 C.2       8 UNK         0.4948 
     53 O          31.4955   33.0915    4.8202 O.2       8 UNK        -0.5275 
     54 N          31.9599   31.4007    6.2804 N.am      9 UNK        -0.4246 
     55 CA         33.1184   31.9369    7.0100 C.3       9 UNK         0.0261 
     56 CB         32.8258   33.3231    7.6243 C.3       9 UNK        -0.1959 
     57 C          34.4478   31.9134    6.2242 C.2       9 UNK         0.5033 
     58 O          35.4612   32.3541    6.7698 O.2       9 UNK        -0.5390 
     59 N          34.4561   31.3663    5.0014 N.am      10 UNK        -0.4215 
     60 CA         35.6447   31.1336    4.1762 C.3       10 UNK         0.0240 
     61 CB         35.7124   32.2045    3.0704 C.3       10 UNK        -0.1982 
     62 C          35.6257   29.6994    3.6132 C.2       10 UNK         0.4970 
     63 O          36.1115   29.4662    2.5051 O.2       10 UNK        -0.4916 
     64 N          35.0426   28.7681    4.3800 N.am      11 UNK        -0.4279 
     65 CA         34.7736   27.3765    3.9831 C.3       11 UNK         0.1003 
     66 C          36.0270   26.4578    3.9003 C.2       11 UNK         0.5709 
     67 N          37.1904   26.8695    4.3904 N.am      11 UNK        -0.7358 
     68 O          35.9416   25.3503    3.3752 O.2       11 UNK        -0.4999 
     69 C69        33.6713   26.7331    4.8700 C.3       12 UNK        -0.0954 
     70 S70        32.1573   27.7478    4.9656 S.3       12 UNK        -0.2268 
     71 C71        31.1626   27.0589    3.6086 C.3       12 UNK         0.0203 
     72 H72        32.7441   18.5258    1.2847 H         1 UNK         0.0888 
     73 H73        32.3422   18.8067   -0.4120 H         1 UNK         0.0888 
     74 H74        31.0912   18.2824    0.7169 H         1 UNK         0.0888 
     75 H75        29.7239   19.9629    1.2865 H         1 UNK         0.3017 
     76 H76        30.7044   22.5218    2.1832 H         1 UNK         0.0873 
     77 H77        28.2108   23.0486    2.4140 H         1 UNK         0.0745 
     78 H78        27.8478   21.5097    1.6945 H         1 UNK         0.0745 
     79 H79        29.7598   22.0631    5.9166 H         1 UNK         0.0705 
     80 H80        30.8218   22.1400    4.5383 H         1 UNK         0.0705 
     81 H81        31.3975   24.3573    3.9429 H         1 UNK         0.1334 
     82 H82        28.6502   27.6019    4.4596 H         1 UNK         0.1417 
     83 H83        27.4682   23.6090    5.4942 H         1 UNK         0.1562 
     84 H84        26.6320   27.1134    5.9802 H         1 UNK         0.0748 
     85 H85        26.0859   25.4710    6.1489 H         1 UNK         0.0748 
     86 H86        26.5503   28.4760    4.0844 H         1 UNK         0.0940 
     87 H87        24.9830   28.6328    3.3672 H         1 UNK         0.0940 
     88 H88        27.3580   27.2473    2.0175 H         1 UNK         0.0703 
     89 H89        25.9519   26.4900    0.5204 H         1 UNK         0.3081 
     90 H90        23.0319   26.4599   -0.1866 H         1 UNK         0.0719 
     91 H91        23.5921   28.8620   -2.0077 H         1 UNK         0.0809 
     92 H92        22.4352   27.5780   -2.3572 H         1 UNK         0.0809 
     93 H93        22.1826   28.6377   -0.9824 H         1 UNK         0.0809 
     94 H94        24.3904   25.3189   -1.5052 H         1 UNK         0.2990 
     95 H95        26.0377   24.6285   -2.6761 H         1 UNK         0.0690 
     96 H96        27.1546   25.0405   -4.8517 H         1 UNK         0.0788 
     97 H97        27.1602   26.7798   -4.5546 H         1 UNK         0.0788 
     98 H98        25.6404   25.9267   -4.7828 H         1 UNK         0.0788 
     99 H99        28.6510   25.5997   -2.9179 H         1 UNK         0.2993 
    100 H100       30.2462   24.9161   -1.4941 H         1 UNK         0.0949 
    101 H101       29.9897   27.3402   -0.8935 H         1 UNK         0.0767 
    102 H102       29.6165   26.8992    0.7707 H         1 UNK         0.0767 
    103 H103       31.2121   26.5584    0.0967 H         1 UNK         0.0767 
    104 H104       30.0044   24.5791    1.3787 H         1 UNK         0.3013 
    105 H105       26.9692   28.7868   -0.4678 H         1 UNK         0.3121 
    106 H106       27.0295   31.5344   -0.0794 H         1 UNK         0.0774 
    107 H107       28.2973   29.8566   -2.3065 H         1 UNK         0.0815 
    108 H108       28.0251   31.5925   -2.3944 H         1 UNK         0.0815 
    109 H109       26.6566   30.5025   -2.2749 H         1 UNK         0.0815 
    110 H110       29.6835   29.3389    0.4821 H         1 UNK         0.2987 
    111 H111       31.7071   31.5111    0.5363 H         1 UNK         0.0949 
    112 H112       32.1154   28.5112    0.9454 H         1 UNK         0.0806 
    113 H113       32.1827   29.2968   -0.6362 H         1 UNK         0.0806 
    114 H114       33.3379   29.7211    0.6152 H         1 UNK         0.0806 
    115 H115       29.4458   31.0423    2.6447 H         1 UNK         0.3010 
    116 H116       30.2844   30.0709    5.0312 H         1 UNK         0.0829 
    117 H117       28.0198   30.8981    4.7384 H         1 UNK         0.0813 
    118 H118       28.7204   31.7858    6.0743 H         1 UNK         0.0813 
    119 H119       28.5820   32.5536    4.4985 H         1 UNK         0.0813 
    120 H120       31.6973   30.4609    6.5466 H         1 UNK         0.3038 
    121 H121       33.2689   31.2487    7.8432 H         1 UNK         0.0769 
    122 H122       32.7628   34.1018    6.8640 H         1 UNK         0.0811 
    123 H123       33.6159   33.6166    8.3166 H         1 UNK         0.0811 
    124 H124       31.8909   33.3216    8.1844 H         1 UNK         0.0811 
    125 H125       33.5838   31.0516    4.5795 H         1 UNK         0.3204 
    126 H126       36.5477   31.2096    4.7850 H         1 UNK         0.0748 
    127 H127       36.6137   32.0927    2.4665 H         1 UNK         0.0771 
    128 H128       34.8551   32.1383    2.3990 H         1 UNK         0.0771 
    129 H129       35.7295   33.2089    3.4937 H         1 UNK         0.0771 
    130 H130       34.6769   29.0437    5.2782 H         1 UNK         0.2980 
    131 H131       34.3783   27.4179    2.9661 H         1 UNK         0.0545 
    132 H132       37.2713   27.7779    4.8173 H         1 UNK         0.3459 
    133 H133       37.9950   26.2661    4.3265 H         1 UNK         0.3459 
    134 H134       33.4100   25.7379    4.5065 H         1 UNK         0.0616 
    135 H135       34.0407   26.5948    5.8876 H         1 UNK         0.0616 
    136 H136       31.8052   26.5855    2.8650 H         1 UNK         0.0634 
    137 H137       30.6611   27.8791    3.0941 H         1 UNK         0.0634 
@<TRIPOS>BOND
     1    1    2 1    
     2    1   72 1    
     3    1   73 1    
     4    1   74 1    
     5    2    3 2    
     6    2    4 am   BACKBONE|DICT|INTERRES
     7    4    5 1    
     8    4   75 1    
     9    5    6 1    
    10    5   35 1    
    11    5   76 1    
    12    6    7 1    
    13    6   77 1    
    14    6   78 1    
    15    7    8 1    
    16    8    9 1    
    17    8   79 1    
    18    8   80 1    
    19    9   10 ar   
    20    9   14 ar   
    21   10   11 ar   
    22   10   81 1    
    23   11   12 ar   
    24   11   71 1    
    25   12   13 ar   
    26   12   82 1    
    27   13   14 ar   
    28   13   15 1    
    29   14   83 1    
    30   15   16 1    
    31   15   84 1    
    32   15   85 1    
    33   16   17 1    
    34   17   18 1    
    35   17   86 1    
    36   17   87 1    
    37   18   19 1    
    38   18   37 1    
    39   18   88 1    
    40   19   20 am   BACKBONE|DICT|INTERRES
    41   19   89 1    
    42   20   21 2    
    43   20   22 1    
    44   22   23 1    
    45   22   24 1    
    46   22   90 1    
    47   23   91 1    
    48   23   92 1    
    49   23   93 1    
    50   24   25 am   BACKBONE|DICT|INTERRES
    51   24   94 1    
    52   25   26 2    
    53   25   27 1    
    54   27   28 1    
    55   27   29 1    
    56   27   95 1    
    57   28   96 1    
    58   28   97 1    
    59   28   98 1    
    60   29   30 am   BACKBONE|DICT|INTERRES
    61   29   99 1    
    62   30   31 2    
    63   30   32 1    
    64   32   33 1    
    65   32   34 1    
    66   32  100 1    
    67   33  101 1    
    68   33  102 1    
    69   33  103 1    
    70   34   35 am   BACKBONE|DICT|INTERRES
    71   34  104 1    
    72   35   36 2    
    73   37   38 2    
    74   37   39 am   BACKBONE|DICT|INTERRES
    75   39   40 1    
    76   39  105 1    
    77   40   41 1    
    78   40   42 1    
    79   40  106 1    
    80   41  107 1    
    81   41  108 1    
    82   41  109 1    
    83   42   43 2    
    84   42   44 am   BACKBONE|DICT|INTERRES
    85   44   45 1    
    86   44  110 1    
    87   45   46 1    
    88   45   47 1    
    89   45  111 1    
    90   46  112 1    
    91   46  113 1    
    92   46  114 1    
    93   47   48 2    
    94   47   49 am   BACKBONE|DICT|INTERRES
    95   49   50 1    
    96   49  115 1    
    97   50   51 1    
    98   50   52 1    
    99   50  116 1    
   100   51  117 1    
   101   51  118 1    
   102   51  119 1    
   103   52   53 2    
   104   52   54 am   BACKBONE|DICT|INTERRES
   105   54   55 1    
   106   54  120 1    
   107   55   56 1    
   108   55   57 1    
   109   55  121 1    
   110   56  122 1    
   111   56  123 1    
   112   56  124 1    
   113   57   58 2    
   114   57   59 am   BACKBONE|DICT|INTERRES
   115   59   60 1    
   116   59  125 1    
   117   60   61 1    
   118   60   62 1    
   119   60  126 1    
   120   61  127 1    
   121   61  128 1    
   122   61  129 1    
   123   62   63 2    
   124   62   64 am   BACKBONE|DICT|INTERRES
   125   64   65 1    
   126   64  130 1    
   127   65   66 1    
   128   65   69 1    
   129   65  131 1    
   130   66   67 am   BACKBONE|DICT|INTERRES
   131   66   68 2    
   132   67  132 1    
   133   67  133 1    
   134   69   70 1    
   135   69  134 1    
   136   69  135 1    
   137   70   71 1    
   138   71  136 1    
   139   71  137 1    
@<TRIPOS>SUBSTRUCTURE
     1 UNK         1 GROUP             0       ****    0 ROOT    
