@<TRIPOS>MOLECULE
3R136
137   139    1
SMALL
USER_CHARGES


@<TRIPOS>ATOM
      1 CA         29.2731   19.4520   -3.5857 C.3       0 UNK        -0.1979 
      2 C          29.2127   20.9248   -3.2102 C.2       0 UNK         0.4864 
      3 O          28.7556   21.7445   -4.0084 O.2       0 UNK        -0.5359 
      4 N          29.6524   21.2715   -1.9939 N.am      1 UNK        -0.4318 
      5 CA         29.6977   22.6300   -1.4353 C.3       1 UNK         0.0824 
      6 C6         30.8031   22.7445   -0.3499 C.3       12 UNK        -0.0944 
      7 S7         30.6335   21.5589    1.0299 S.3       12 UNK        -0.2672 
      8 C8         32.0582   22.0179    2.0662 C.3       12 UNK         0.0333 
      9 C9         31.8576   23.3460    2.7858 C.ar      12 UNK        -0.0807 
     10 C10        32.5914   24.4756    2.4071 C.ar      12 UNK        -0.0894 
     11 C11        32.4523   25.6781    3.1071 C.ar      12 UNK        -0.0804 
     12 C12        31.5626   25.7493    4.1823 C.ar      12 UNK        -0.0824 
     13 C13        30.8143   24.6338    4.5642 C.ar      12 UNK        -0.0762 
     14 C14        30.9679   23.4337    3.8622 C.ar      12 UNK        -0.0782 
     15 C15        29.8619   24.7121    5.7497 C.3       12 UNK         0.0230 
     16 S16        28.1450   24.9709    5.2050 S.3       12 UNK        -0.2608 
     17 C17        27.8523   26.7377    5.5831 C.3       12 UNK        -0.0989 
     18 CA         28.5387   27.7455    4.6221 C.3       5 UNK         0.0716 
     19 N          28.4919   27.3028    3.2280 N.am      5 UNK        -0.4135 
     20 C          29.0403   27.9243    2.1776 C.2       4 UNK         0.5031 
     21 O          29.6892   28.9664    2.2528 O.2       4 UNK        -0.5229 
     22 CA         28.7614   27.3163    0.7968 C.3       4 UNK         0.0329 
     23 CB         29.9141   26.3860    0.4042 C.3       4 UNK        -0.2001 
     24 N          27.4820   26.5972    0.7033 N.am      4 UNK        -0.4303 
     25 C          26.2737   27.1354    0.9441 C.2       3 UNK         0.5044 
     26 O          26.1247   28.2809    1.3766 O.2       3 UNK        -0.5152 
     27 CA         25.0205   26.2630    0.7254 C.3       3 UNK         0.0319 
     28 CB         23.8883   27.0556    0.0384 C.3       3 UNK        -0.2001 
     29 N          25.2606   24.9856    0.0403 N.am      3 UNK        -0.4354 
     30 C          25.6877   24.7904   -1.2161 C.2       2 UNK         0.4964 
     31 O          25.9475   25.6902   -2.0171 O.2       2 UNK        -0.5047 
     32 CA         25.8898   23.3232   -1.6321 C.3       2 UNK         0.0288 
     33 CB         25.0856   22.9901   -2.9002 C.3       2 UNK        -0.2113 
     34 N          27.2988   22.9918   -1.8558 N.am      2 UNK        -0.4145 
     35 C          28.3038   23.1367   -0.9798 C.2       1 UNK         0.5006 
     36 O          28.1530   23.6331    0.1391 O.2       1 UNK        -0.5103 
     37 C          27.9630   29.1647    4.8285 C.2       5 UNK         0.5055 
     38 O          28.4207   29.8688    5.7294 O.2       5 UNK        -0.5220 
     39 N          26.9878   29.5539    3.9939 N.am      6 UNK        -0.4450 
     40 CA         26.3830   30.8845    3.9768 C.3       6 UNK         0.0367 
     41 CB         24.8528   30.7432    4.0363 C.3       6 UNK        -0.1929 
     42 C          26.7953   31.6722    2.7244 C.2       6 UNK         0.5070 
     43 O          27.0511   32.8716    2.8297 O.2       6 UNK        -0.5237 
     44 N          26.8299   31.0047    1.5612 N.am      7 UNK        -0.4739 
     45 CA         27.0642   31.6299    0.2567 C.3       7 UNK         0.0276 
     46 CB         26.6332   30.6621   -0.8576 C.3       7 UNK        -0.1927 
     47 C          28.5107   32.0993    0.0324 C.2       7 UNK         0.5013 
     48 O          28.7070   33.0987   -0.6608 O.2       7 UNK        -0.5193 
     49 N          29.4859   31.3798    0.6018 N.am      8 UNK        -0.4253 
     50 CA         30.9123   31.6981    0.5121 C.3       8 UNK         0.0242 
     51 CB         31.6714   30.5109   -0.1074 C.3       8 UNK        -0.2000 
     52 C          31.4816   32.0477    1.8924 C.2       8 UNK         0.4948 
     53 O          32.2067   33.0373    2.0062 O.2       8 UNK        -0.5275 
     54 N          31.1382   31.2373    2.9058 N.am      9 UNK        -0.4246 
     55 CA         31.6474   31.2716    4.2802 C.3       9 UNK         0.0261 
     56 CB         31.1836   32.5514    5.0118 C.3       9 UNK        -0.1959 
     57 C          33.1706   31.0271    4.3167 C.2       9 UNK         0.5033 
     58 O          33.6685   30.2429    3.5073 O.2       9 UNK        -0.5390 
     59 N          33.8809   31.6549    5.2650 N.am      10 UNK        -0.4215 
     60 CA         35.3374   31.6277    5.4947 C.3       10 UNK         0.0240 
     61 CB         36.1050   32.1826    4.2780 C.3       10 UNK        -0.1982 
     62 C          35.9267   30.2733    5.9426 C.2       10 UNK         0.4970 
     63 O          36.8912   30.2782    6.7090 O.2       10 UNK        -0.4916 
     64 N          35.3555   29.1564    5.4771 N.am      11 UNK        -0.4279 
     65 CA         35.6902   27.7758    5.8569 C.3       11 UNK         0.1003 
     66 C          35.6025   27.5262    7.3892 C.2       11 UNK         0.5709 
     67 N          36.5258   26.7553    7.9478 N.am      11 UNK        -0.7358 
     68 O          34.6814   27.9865    8.0623 O.2       11 UNK        -0.4999 
     69 C69        34.7935   26.7556    5.1096 C.3       12 UNK        -0.0954 
     70 S70        34.9914   26.8002    3.2949 S.3       12 UNK        -0.2268 
     71 C71        33.2661   26.9025    2.7118 C.3       12 UNK         0.0203 
     72 H72        29.6944   18.8444   -2.7850 H         1 UNK         0.0888 
     73 H73        28.2728   19.0793   -3.8044 H         1 UNK         0.0888 
     74 H74        29.8895   19.3170   -4.4740 H         1 UNK         0.0888 
     75 H75        29.9809   20.5521   -1.3643 H         1 UNK         0.3017 
     76 H76        29.9926   23.3039   -2.2427 H         1 UNK         0.0873 
     77 H77        31.7765   22.5760   -0.8132 H         1 UNK         0.0745 
     78 H78        30.8486   23.7549    0.0517 H         1 UNK         0.0745 
     79 H79        32.2162   21.2336    2.8078 H         1 UNK         0.0705 
     80 H80        32.9600   22.0390    1.4522 H         1 UNK         0.0705 
     81 H81        33.2867   24.4168    1.5808 H         1 UNK         0.1334 
     82 H82        31.4674   26.6737    4.7315 H         1 UNK         0.1417 
     83 H83        30.3978   22.5628    4.1566 H         1 UNK         0.1562 
     84 H84        30.1654   25.5009    6.4397 H         1 UNK         0.0748 
     85 H85        29.9119   23.7812    6.3166 H         1 UNK         0.0748 
     86 H86        28.1527   26.9347    6.6141 H         1 UNK         0.0940 
     87 H87        26.7690   26.8756    5.5629 H         1 UNK         0.0940 
     88 H88        29.5916   27.8069    4.8939 H         1 UNK         0.0703 
     89 H89        28.0045   26.4336    3.0646 H         1 UNK         0.3081 
     90 H90        28.7279   28.1374    0.0792 H         1 UNK         0.0719 
     91 H91        30.0002   25.5564    1.1070 H         1 UNK         0.0809 
     92 H92        29.7756   25.9777   -0.5966 H         1 UNK         0.0809 
     93 H93        30.8671   26.9171    0.4100 H         1 UNK         0.0809 
     94 H94        27.5294   25.6288    0.4037 H         1 UNK         0.2990 
     95 H95        24.6721   26.0000    1.7251 H         1 UNK         0.0690 
     96 H96        22.9952   26.4440   -0.0891 H         1 UNK         0.0788 
     97 H97        24.1880   27.4227   -0.9437 H         1 UNK         0.0788 
     98 H98        23.6007   27.9244    0.6322 H         1 UNK         0.0788 
     99 H99        25.1226   24.1660    0.6163 H         1 UNK         0.2993 
    100 H100       25.5305   22.6766   -0.8288 H         1 UNK         0.0949 
    101 H101       25.1593   21.9315   -3.1506 H         1 UNK         0.0767 
    102 H102       24.0276   23.2180   -2.7632 H         1 UNK         0.0767 
    103 H103       25.4346   23.5626   -3.7609 H         1 UNK         0.0767 
    104 H104       27.5396   22.6020   -2.7628 H         1 UNK         0.3013 
    105 H105       26.6977   28.9198    3.2573 H         1 UNK         0.3121 
    106 H106       26.7021   31.4614    4.8476 H         1 UNK         0.0774 
    107 H107       24.4650   30.1705    3.1925 H         1 UNK         0.0815 
    108 H108       24.3694   31.7210    4.0180 H         1 UNK         0.0815 
    109 H109       24.5381   30.2435    4.9525 H         1 UNK         0.0815 
    110 H110       26.5747   30.0191    1.5441 H         1 UNK         0.2987 
    111 H111       26.4265   32.5148    0.1949 H         1 UNK         0.0949 
    112 H112       27.2309   29.7507   -0.8571 H         1 UNK         0.0806 
    113 H113       25.5871   30.3741   -0.7510 H         1 UNK         0.0806 
    114 H114       26.7438   31.1234   -1.8399 H         1 UNK         0.0806 
    115 H115       29.2366   30.5849    1.1802 H         1 UNK         0.3010 
    116 H116       31.0721   32.5653   -0.1322 H         1 UNK         0.0829 
    117 H117       31.5837   29.6067    0.4955 H         1 UNK         0.0813 
    118 H118       31.3010   30.2833   -1.1069 H         1 UNK         0.0813 
    119 H119       32.7349   30.7361   -0.1980 H         1 UNK         0.0813 
    120 H120       30.5918   30.4073    2.6774 H         1 UNK         0.3038 
    121 H121       31.1922   30.4186    4.7857 H         1 UNK         0.0769 
    122 H122       31.3788   32.4923    6.0829 H         1 UNK         0.0811 
    123 H123       31.6782   33.4451    4.6293 H         1 UNK         0.0811 
    124 H124       30.1087   32.6949    4.8974 H         1 UNK         0.0811 
    125 H125       33.3647   32.2443    5.9035 H         1 UNK         0.3204 
    126 H126       35.5079   32.3169    6.3235 H         1 UNK         0.0748 
    127 H127       37.1706   32.2679    4.4954 H         1 UNK         0.0771 
    128 H128       36.0046   31.5385    3.4037 H         1 UNK         0.0771 
    129 H129       35.7494   33.1760    4.0042 H         1 UNK         0.0771 
    130 H130       34.6241   29.2686    4.7809 H         1 UNK         0.2980 
    131 H131       36.7246   27.6111    5.5497 H         1 UNK         0.0545 
    132 H132       37.2768   26.3616    7.4023 H         1 UNK         0.3459 
    133 H133       36.4750   26.5696    8.9373 H         1 UNK         0.3459 
    134 H134       35.0195   25.7365    5.4293 H         1 UNK         0.0616 
    135 H135       33.7503   26.9314    5.3718 H         1 UNK         0.0616 
    136 H136       33.2670   27.0035    1.6258 H         1 UNK         0.0634 
    137 H137       32.8020   27.8101    3.0991 H         1 UNK         0.0634 
@<TRIPOS>BOND
     1    1    2 1    
     2    1   72 1    
     3    1   73 1    
     4    1   74 1    
     5    2    3 2    
     6    2    4 am   BACKBONE|DICT|INTERRES
     7    4    5 1    
     8    4   75 1    
     9    5    6 1    
    10    5   35 1    
    11    5   76 1    
    12    6    7 1    
    13    6   77 1    
    14    6   78 1    
    15    7    8 1    
    16    8    9 1    
    17    8   79 1    
    18    8   80 1    
    19    9   10 ar   
    20    9   14 ar   
    21   10   11 ar   
    22   10   81 1    
    23   11   12 ar   
    24   11   71 1    
    25   12   13 ar   
    26   12   82 1    
    27   13   14 ar   
    28   13   15 1    
    29   14   83 1    
    30   15   16 1    
    31   15   84 1    
    32   15   85 1    
    33   16   17 1    
    34   17   18 1    
    35   17   86 1    
    36   17   87 1    
    37   18   19 1    
    38   18   37 1    
    39   18   88 1    
    40   19   20 am   BACKBONE|DICT|INTERRES
    41   19   89 1    
    42   20   21 2    
    43   20   22 1    
    44   22   23 1    
    45   22   24 1    
    46   22   90 1    
    47   23   91 1    
    48   23   92 1    
    49   23   93 1    
    50   24   25 am   BACKBONE|DICT|INTERRES
    51   24   94 1    
    52   25   26 2    
    53   25   27 1    
    54   27   28 1    
    55   27   29 1    
    56   27   95 1    
    57   28   96 1    
    58   28   97 1    
    59   28   98 1    
    60   29   30 am   BACKBONE|DICT|INTERRES
    61   29   99 1    
    62   30   31 2    
    63   30   32 1    
    64   32   33 1    
    65   32   34 1    
    66   32  100 1    
    67   33  101 1    
    68   33  102 1    
    69   33  103 1    
    70   34   35 am   BACKBONE|DICT|INTERRES
    71   34  104 1    
    72   35   36 2    
    73   37   38 2    
    74   37   39 am   BACKBONE|DICT|INTERRES
    75   39   40 1    
    76   39  105 1    
    77   40   41 1    
    78   40   42 1    
    79   40  106 1    
    80   41  107 1    
    81   41  108 1    
    82   41  109 1    
    83   42   43 2    
    84   42   44 am   BACKBONE|DICT|INTERRES
    85   44   45 1    
    86   44  110 1    
    87   45   46 1    
    88   45   47 1    
    89   45  111 1    
    90   46  112 1    
    91   46  113 1    
    92   46  114 1    
    93   47   48 2    
    94   47   49 am   BACKBONE|DICT|INTERRES
    95   49   50 1    
    96   49  115 1    
    97   50   51 1    
    98   50   52 1    
    99   50  116 1    
   100   51  117 1    
   101   51  118 1    
   102   51  119 1    
   103   52   53 2    
   104   52   54 am   BACKBONE|DICT|INTERRES
   105   54   55 1    
   106   54  120 1    
   107   55   56 1    
   108   55   57 1    
   109   55  121 1    
   110   56  122 1    
   111   56  123 1    
   112   56  124 1    
   113   57   58 2    
   114   57   59 am   BACKBONE|DICT|INTERRES
   115   59   60 1    
   116   59  125 1    
   117   60   61 1    
   118   60   62 1    
   119   60  126 1    
   120   61  127 1    
   121   61  128 1    
   122   61  129 1    
   123   62   63 2    
   124   62   64 am   BACKBONE|DICT|INTERRES
   125   64   65 1    
   126   64  130 1    
   127   65   66 1    
   128   65   69 1    
   129   65  131 1    
   130   66   67 am   BACKBONE|DICT|INTERRES
   131   66   68 2    
   132   67  132 1    
   133   67  133 1    
   134   69   70 1    
   135   69  134 1    
   136   69  135 1    
   137   70   71 1    
   138   71  136 1    
   139   71  137 1    
@<TRIPOS>SUBSTRUCTURE
     1 UNK         1 GROUP             0       ****    0 ROOT    
