@<TRIPOS>MOLECULE
3R136
137   139    1
SMALL
USER_CHARGES


@<TRIPOS>ATOM
      1 CA         32.2353   25.8767    0.1471 C.3       0 UNK        -0.1979 
      2 C          30.9229   25.1594    0.4196 C.2       0 UNK         0.4864 
      3 O          29.8745   25.8032    0.4651 O.2       0 UNK        -0.5359 
      4 N          30.9588   23.8277    0.5748 N.am      1 UNK        -0.4318 
      5 CA         29.7886   22.9832    0.8637 C.3       1 UNK         0.0824 
      6 C6         30.1950   21.5129    1.1510 C.3       12 UNK        -0.0944 
      7 S7         29.1432   20.7636    2.4416 S.3       12 UNK        -0.2672 
      8 C8         30.2781   20.6655    3.8653 C.3       12 UNK         0.0333 
      9 C9         30.8241   22.0270    4.2769 C.ar      12 UNK        -0.0807 
     10 C10        32.1700   22.3371    4.0590 C.ar      12 UNK        -0.0894 
     11 C11        32.6820   23.5777    4.4456 C.ar      12 UNK        -0.0804 
     12 C12        31.8379   24.5164    5.0427 C.ar      12 UNK        -0.0824 
     13 C13        30.4916   24.2214    5.2718 C.ar      12 UNK        -0.0762 
     14 C14        29.9929   22.9675    4.8948 C.ar      12 UNK        -0.0782 
     15 C15        29.6140   25.2571    5.9691 C.3       12 UNK         0.0230 
     16 S16        27.9325   25.4007    5.2836 S.3       12 UNK        -0.2608 
     17 C17        28.2570   25.9588    3.5723 C.3       12 UNK        -0.0989 
     18 CA         28.5977   27.4625    3.3697 C.3       5 UNK         0.0716 
     19 N          28.5701   27.7815    1.9393 N.am      5 UNK        -0.4135 
     20 C          28.5736   28.9724    1.3229 C.2       4 UNK         0.5031 
     21 O          28.6600   30.0598    1.8926 O.2       4 UNK        -0.5229 
     22 CA         28.4501   28.9492   -0.2103 C.3       4 UNK         0.0329 
     23 CB         29.8335   29.0308   -0.8718 C.3       4 UNK        -0.2001 
     24 N          27.7284   27.7639   -0.6916 N.am      4 UNK        -0.4303 
     25 C          26.3929   27.6485   -0.6575 C.2       3 UNK         0.5044 
     26 O          25.6548   28.5617   -0.2844 O.2       3 UNK        -0.5152 
     27 CA         25.7406   26.3100   -1.0635 C.3       3 UNK         0.0319 
     28 CB         24.7004   26.5107   -2.1859 C.3       3 UNK        -0.2001 
     29 N          26.6488   25.2008   -1.3888 N.am      3 UNK        -0.4354 
     30 C          27.4729   25.0661   -2.4365 C.2       2 UNK         0.4964 
     31 O          27.6942   25.9599   -3.2544 O.2       2 UNK        -0.5047 
     32 CA         28.1663   23.6931   -2.5798 C.3       2 UNK         0.0288 
     33 CB         28.9697   23.5694   -3.8884 C.3       2 UNK        -0.2113 
     34 N          29.0568   23.4042   -1.4544 N.am      2 UNK        -0.4145 
     35 C          28.6778   23.0695   -0.2114 C.2       1 UNK         0.5006 
     36 O          27.5016   22.8812    0.1065 O.2       1 UNK        -0.5103 
     37 C          27.7105   28.4153    4.1994 C.2       5 UNK         0.5055 
     38 O          26.4831   28.3554    4.0973 O.2       5 UNK        -0.5220 
     39 N          28.3659   29.3030    4.9601 N.am      6 UNK        -0.4450 
     40 CA         27.8354   30.3412    5.8546 C.3       6 UNK         0.0367 
     41 CB         26.9259   29.7387    6.9432 C.3       6 UNK        -0.1929 
     42 C          27.1475   31.5208    5.1417 C.2       6 UNK         0.5070 
     43 O          27.1630   32.6292    5.6778 O.2       6 UNK        -0.5237 
     44 N          26.5712   31.2853    3.9578 N.am      7 UNK        -0.4739 
     45 CA         25.9368   32.2910    3.1066 C.3       7 UNK         0.0276 
     46 CB         25.1336   31.5813    2.0046 C.3       7 UNK        -0.1927 
     47 C          26.9429   33.2752    2.4874 C.2       7 UNK         0.5013 
     48 O          26.6199   34.4567    2.3544 O.2       7 UNK        -0.5193 
     49 N          28.1275   32.7746    2.1147 N.am      8 UNK        -0.4253 
     50 CA         29.1823   33.5392    1.4504 C.3       8 UNK         0.0242 
     51 CB         29.0341   33.3914   -0.0746 C.3       8 UNK        -0.2000 
     52 C          30.5995   33.1428    1.8920 C.2       8 UNK         0.4948 
     53 O          31.4853   33.9975    1.8326 O.2       8 UNK        -0.5275 
     54 N          30.8217   31.8847    2.2981 N.am      9 UNK        -0.4246 
     55 CA         32.1472   31.3491    2.6140 C.3       9 UNK         0.0261 
     56 CB         32.8311   30.8900    1.3082 C.3       9 UNK        -0.1959 
     57 C          32.0508   30.1950    3.6206 C.2       9 UNK         0.5033 
     58 O          30.9523   29.7837    3.9973 O.2       9 UNK        -0.5390 
     59 N          33.2162   29.6753    4.0187 N.am      10 UNK        -0.4215 
     60 CA         33.3709   28.4766    4.8441 C.3       10 UNK         0.0240 
     61 CB         33.3385   28.8488    6.3396 C.3       10 UNK        -0.1982 
     62 C          34.6416   27.7164    4.4244 C.2       10 UNK         0.4970 
     63 O          35.4291   27.3106    5.2792 O.2       10 UNK        -0.4916 
     64 N          34.8209   27.5634    3.1044 N.am      11 UNK        -0.4279 
     65 CA         35.9424   26.8740    2.4328 C.3       11 UNK         0.1003 
     66 C          37.3244   27.5910    2.5336 C.2       11 UNK         0.5709 
     67 N          37.4029   28.8291    3.0061 N.am      11 UNK        -0.7358 
     68 O          38.3453   27.0303    2.1414 O.2       11 UNK        -0.4999 
     69 C69        36.0450   25.3573    2.7741 C.3       12 UNK        -0.0954 
     70 S70        34.4709   24.4637    2.5471 S.3       12 UNK        -0.2268 
     71 C71        34.1516   23.9007    4.2434 C.3       12 UNK         0.0203 
     72 H72        32.4784   26.5369    0.9788 H         1 UNK         0.0888 
     73 H73        33.0594   25.1773    0.0106 H         1 UNK         0.0888 
     74 H74        32.1556   26.4774   -0.7579 H         1 UNK         0.0888 
     75 H75        31.8485   23.3512    0.5332 H         1 UNK         0.3017 
     76 H76        29.3581   23.4027    1.7753 H         1 UNK         0.0873 
     77 H77        30.1489   20.8963    0.2510 H         1 UNK         0.0745 
     78 H78        31.2329   21.4545    1.4808 H         1 UNK         0.0745 
     79 H79        31.0905   19.9781    3.6241 H         1 UNK         0.0705 
     80 H80        29.7465   20.2226    4.7087 H         1 UNK         0.0705 
     81 H81        32.8242   21.6124    3.5935 H         1 UNK         0.1334 
     82 H82        32.2380   25.4731    5.3478 H         1 UNK         0.1417 
     83 H83        28.9555   22.7215    5.0767 H         1 UNK         0.1562 
     84 H84        30.0806   26.2431    5.9375 H         1 UNK         0.0748 
     85 H85        29.5361   24.9886    7.0233 H         1 UNK         0.0748 
     86 H86        27.3615   25.7116    2.9988 H         1 UNK         0.0940 
     87 H87        29.0513   25.3444    3.1472 H         1 UNK         0.0940 
     88 H88        29.6309   27.5953    3.6921 H         1 UNK         0.0703 
     89 H89        28.6527   26.9748    1.3277 H         1 UNK         0.3081 
     90 H90        27.8922   29.8407   -0.5055 H         1 UNK         0.0719 
     91 H91        30.4777   28.2069   -0.5690 H         1 UNK         0.0809 
     92 H92        29.7555   29.0158   -1.9590 H         1 UNK         0.0809 
     93 H93        30.3379   29.9577   -0.5966 H         1 UNK         0.0809 
     94 H94        28.2818   26.9728   -0.9931 H         1 UNK         0.2990 
     95 H95        25.1968   25.9779   -0.1779 H         1 UNK         0.0690 
     96 H96        24.1871   25.5789   -2.4234 H         1 UNK         0.0788 
     97 H97        25.1585   26.8856   -3.1016 H         1 UNK         0.0788 
     98 H98        23.9368   27.2311   -1.8896 H         1 UNK         0.0788 
     99 H99        26.6188   24.4145   -0.7446 H         1 UNK         0.2993 
    100 H100       27.3785   22.9366   -2.6016 H         1 UNK         0.0949 
    101 H101       29.7880   24.2895   -3.9309 H         1 UNK         0.0767 
    102 H102       29.3943   22.5715   -4.0004 H         1 UNK         0.0767 
    103 H103       28.3328   23.7471   -4.7561 H         1 UNK         0.0767 
    104 H104       30.0398   23.5718   -1.6104 H         1 UNK         0.3013 
    105 H105       29.3730   29.3651    4.8024 H         1 UNK         0.3121 
    106 H106       28.7106   30.7593    6.3545 H         1 UNK         0.0774 
    107 H107       26.6403   30.4975    7.6729 H         1 UNK         0.0815 
    108 H108       26.0049   29.3307    6.5260 H         1 UNK         0.0815 
    109 H109       27.4317   28.9402    7.4858 H         1 UNK         0.0815 
    110 H110       26.5803   30.3292    3.6191 H         1 UNK         0.2987 
    111 H111       25.2436   32.8682    3.7223 H         1 UNK         0.0949 
    112 H112       24.6325   32.3036    1.3587 H         1 UNK         0.0806 
    113 H113       25.7738   30.9653    1.3708 H         1 UNK         0.0806 
    114 H114       24.3636   30.9358    2.4274 H         1 UNK         0.0806 
    115 H115       28.2819   31.7730    2.2210 H         1 UNK         0.3010 
    116 H116       29.0723   34.5960    1.7038 H         1 UNK         0.0829 
    117 H117       28.0742   33.7767   -0.4188 H         1 UNK         0.0813 
    118 H118       29.8127   33.9457   -0.6005 H         1 UNK         0.0813 
    119 H119       29.1074   32.3482   -0.3847 H         1 UNK         0.0813 
    120 H120       30.0623   31.2084    2.3502 H         1 UNK         0.3038 
    121 H121       32.7483   32.1315    3.0824 H         1 UNK         0.0769 
    122 H122       33.8622   30.5803    1.4790 H         1 UNK         0.0811 
    123 H123       32.8640   31.6928    0.5713 H         1 UNK         0.0811 
    124 H124       32.3065   30.0472    0.8570 H         1 UNK         0.0811 
    125 H125       34.0724   30.0997    3.6905 H         1 UNK         0.3204 
    126 H126       32.5366   27.8004    4.6455 H         1 UNK         0.0748 
    127 H127       33.4239   27.9609    6.9675 H         1 UNK         0.0771 
    128 H128       34.1568   29.5193    6.6042 H         1 UNK         0.0771 
    129 H129       32.4026   29.3411    6.6045 H         1 UNK         0.0771 
    130 H130       34.1187   27.9360    2.4837 H         1 UNK         0.2980 
    131 H131       35.6968   26.9336    1.3720 H         1 UNK         0.0545 
    132 H132       36.5835   29.3071    3.3380 H         1 UNK         0.3459 
    133 H133       38.3033   29.2798    3.0510 H         1 UNK         0.3459 
    134 H134       36.4122   25.2190    3.7920 H         1 UNK         0.0616 
    135 H135       36.7787   24.8738    2.1269 H         1 UNK         0.0616 
    136 H136       34.4608   24.6676    4.9548 H         1 UNK         0.0634 
    137 H137       34.7641   23.0224    4.4525 H         1 UNK         0.0634 
@<TRIPOS>BOND
     1    1    2 1    
     2    1   72 1    
     3    1   73 1    
     4    1   74 1    
     5    2    3 2    
     6    2    4 am   BACKBONE|DICT|INTERRES
     7    4    5 1    
     8    4   75 1    
     9    5    6 1    
    10    5   35 1    
    11    5   76 1    
    12    6    7 1    
    13    6   77 1    
    14    6   78 1    
    15    7    8 1    
    16    8    9 1    
    17    8   79 1    
    18    8   80 1    
    19    9   10 ar   
    20    9   14 ar   
    21   10   11 ar   
    22   10   81 1    
    23   11   12 ar   
    24   11   71 1    
    25   12   13 ar   
    26   12   82 1    
    27   13   14 ar   
    28   13   15 1    
    29   14   83 1    
    30   15   16 1    
    31   15   84 1    
    32   15   85 1    
    33   16   17 1    
    34   17   18 1    
    35   17   86 1    
    36   17   87 1    
    37   18   19 1    
    38   18   37 1    
    39   18   88 1    
    40   19   20 am   BACKBONE|DICT|INTERRES
    41   19   89 1    
    42   20   21 2    
    43   20   22 1    
    44   22   23 1    
    45   22   24 1    
    46   22   90 1    
    47   23   91 1    
    48   23   92 1    
    49   23   93 1    
    50   24   25 am   BACKBONE|DICT|INTERRES
    51   24   94 1    
    52   25   26 2    
    53   25   27 1    
    54   27   28 1    
    55   27   29 1    
    56   27   95 1    
    57   28   96 1    
    58   28   97 1    
    59   28   98 1    
    60   29   30 am   BACKBONE|DICT|INTERRES
    61   29   99 1    
    62   30   31 2    
    63   30   32 1    
    64   32   33 1    
    65   32   34 1    
    66   32  100 1    
    67   33  101 1    
    68   33  102 1    
    69   33  103 1    
    70   34   35 am   BACKBONE|DICT|INTERRES
    71   34  104 1    
    72   35   36 2    
    73   37   38 2    
    74   37   39 am   BACKBONE|DICT|INTERRES
    75   39   40 1    
    76   39  105 1    
    77   40   41 1    
    78   40   42 1    
    79   40  106 1    
    80   41  107 1    
    81   41  108 1    
    82   41  109 1    
    83   42   43 2    
    84   42   44 am   BACKBONE|DICT|INTERRES
    85   44   45 1    
    86   44  110 1    
    87   45   46 1    
    88   45   47 1    
    89   45  111 1    
    90   46  112 1    
    91   46  113 1    
    92   46  114 1    
    93   47   48 2    
    94   47   49 am   BACKBONE|DICT|INTERRES
    95   49   50 1    
    96   49  115 1    
    97   50   51 1    
    98   50   52 1    
    99   50  116 1    
   100   51  117 1    
   101   51  118 1    
   102   51  119 1    
   103   52   53 2    
   104   52   54 am   BACKBONE|DICT|INTERRES
   105   54   55 1    
   106   54  120 1    
   107   55   56 1    
   108   55   57 1    
   109   55  121 1    
   110   56  122 1    
   111   56  123 1    
   112   56  124 1    
   113   57   58 2    
   114   57   59 am   BACKBONE|DICT|INTERRES
   115   59   60 1    
   116   59  125 1    
   117   60   61 1    
   118   60   62 1    
   119   60  126 1    
   120   61  127 1    
   121   61  128 1    
   122   61  129 1    
   123   62   63 2    
   124   62   64 am   BACKBONE|DICT|INTERRES
   125   64   65 1    
   126   64  130 1    
   127   65   66 1    
   128   65   69 1    
   129   65  131 1    
   130   66   67 am   BACKBONE|DICT|INTERRES
   131   66   68 2    
   132   67  132 1    
   133   67  133 1    
   134   69   70 1    
   135   69  134 1    
   136   69  135 1    
   137   70   71 1    
   138   71  136 1    
   139   71  137 1    
@<TRIPOS>SUBSTRUCTURE
     1 UNK         1 GROUP             0       ****    0 ROOT    
