@<TRIPOS>MOLECULE
3R136
137   139    1
SMALL
USER_CHARGES


@<TRIPOS>ATOM
      1 CA         26.9952   19.4257    0.7546 C.3       0 UNK        -0.1979 
      2 C          27.3244   20.1129   -0.5627 C.2       0 UNK         0.4864 
      3 O          26.8138   19.7102   -1.6093 O.2       0 UNK        -0.5359 
      4 N          28.1791   21.1416   -0.5181 N.am      1 UNK        -0.4318 
      5 CA         28.5441   21.9857   -1.6587 C.3       1 UNK         0.0824 
      6 C6         29.8838   22.7326   -1.4178 C.3       12 UNK        -0.0944 
      7 S7         29.9751   23.6343    0.1713 S.3       12 UNK        -0.2672 
      8 C8         31.1188   22.5655    1.1002 C.3       12 UNK         0.0333 
      9 C9         31.2281   22.9963    2.5546 C.ar      12 UNK        -0.0807 
     10 C10        32.2635   23.8398    2.9676 C.ar      12 UNK        -0.0894 
     11 C11        32.3760   24.2240    4.3079 C.ar      12 UNK        -0.0804 
     12 C12        31.4387   23.7623    5.2382 C.ar      12 UNK        -0.0824 
     13 C13        30.3970   22.9191    4.8352 C.ar      12 UNK        -0.0762 
     14 C14        30.3018   22.5349    3.4939 C.ar      12 UNK        -0.0782 
     15 C15        29.3657   22.4267    5.8413 C.3       12 UNK         0.0230 
     16 S16        27.7124   23.1213    5.5141 S.3       12 UNK        -0.2608 
     17 C17        27.9730   24.8906    5.8778 C.3       12 UNK        -0.0989 
     18 CA         28.3683   25.7080    4.6233 C.3       5 UNK         0.0716 
     19 N          27.3814   25.6081    3.5451 N.am      5 UNK        -0.4135 
     20 C          27.5850   26.0463    2.2961 C.2       4 UNK         0.5031 
     21 O          28.6456   26.5516    1.9205 O.2       4 UNK        -0.5229 
     22 CA         26.4110   25.8537    1.3166 C.3       4 UNK         0.0329 
     23 CB         25.1495   26.6266    1.7599 C.3       4 UNK        -0.2001 
     24 N          26.7772   26.1653   -0.0706 N.am      4 UNK        -0.4303 
     25 C          27.0630   27.3621   -0.6118 C.2       3 UNK         0.5044 
     26 O          26.9135   28.4405   -0.0353 O.2       3 UNK        -0.5152 
     27 CA         27.6283   27.3715   -2.0474 C.3       3 UNK         0.0319 
     28 CB         29.1261   27.7203   -2.0264 C.3       3 UNK        -0.2001 
     29 N          27.4544   26.1023   -2.7580 N.am      3 UNK        -0.4354 
     30 C          26.2942   25.6554   -3.2584 C.2       2 UNK         0.4964 
     31 O          25.2494   26.3068   -3.2508 O.2       2 UNK        -0.5047 
     32 CA         26.2904   24.2329   -3.8506 C.3       2 UNK         0.0288 
     33 CB         26.4371   24.2885   -5.3803 C.3       2 UNK        -0.2113 
     34 N          27.3195   23.3398   -3.2996 N.am      2 UNK        -0.4145 
     35 C          27.3978   22.9548   -2.0167 C.2       1 UNK         0.5006 
     36 O          26.6344   23.3614   -1.1362 O.2       1 UNK        -0.5103 
     37 C          28.6276   27.1794    4.9911 C.2       5 UNK         0.5055 
     38 O          27.6778   27.9627    5.0722 O.2       5 UNK        -0.5220 
     39 N          29.9079   27.5237    5.1837 N.am      6 UNK        -0.4450 
     40 CA         30.4722   28.8581    5.4339 C.3       6 UNK         0.0367 
     41 CB         29.8916   29.5127    6.7018 C.3       6 UNK        -0.1929 
     42 C          30.4013   29.8124    4.2282 C.2       6 UNK         0.5070 
     43 O          31.3834   30.5114    3.9685 O.2       6 UNK        -0.5237 
     44 N          29.2650   29.8125    3.5177 N.am      7 UNK        -0.4739 
     45 CA         28.9280   30.6207    2.3419 C.3       7 UNK         0.0276 
     46 CB         29.7681   30.1724    1.1258 C.3       7 UNK        -0.1927 
     47 C          29.0121   32.1301    2.6443 C.2       7 UNK         0.5013 
     48 O          28.6796   32.5472    3.7571 O.2       7 UNK        -0.5193 
     49 N          29.4766   32.9322    1.6775 N.am      8 UNK        -0.4253 
     50 CA         29.7358   34.3681    1.8240 C.3       8 UNK         0.0242 
     51 CB         29.6736   35.0290    0.4337 C.3       8 UNK        -0.2000 
     52 C          31.0741   34.6253    2.5483 C.2       8 UNK         0.4948 
     53 O          31.9465   35.3044    2.0040 O.2       8 UNK        -0.5275 
     54 N          31.2153   34.0440    3.7498 N.am      9 UNK        -0.4246 
     55 CA         32.4087   34.0249    4.6056 C.3       9 UNK         0.0261 
     56 CB         32.6945   35.4302    5.1769 C.3       9 UNK        -0.1959 
     57 C          33.6336   33.3946    3.9095 C.2       9 UNK         0.5033 
     58 O          34.7486   33.9055    4.0357 O.2       9 UNK        -0.5390 
     59 N          33.4006   32.2935    3.1833 N.am      10 UNK        -0.4215 
     60 CA         34.4283   31.5291    2.4764 C.3       10 UNK         0.0240 
     61 CB         33.7905   30.7825    1.2938 C.3       10 UNK        -0.1982 
     62 C          35.1391   30.5392    3.4098 C.2       10 UNK         0.4970 
     63 O          36.3478   30.3469    3.2707 O.2       10 UNK        -0.4916 
     64 N          34.3845   29.9376    4.3375 N.am      11 UNK        -0.4279 
     65 CA         34.8814   28.9485    5.3061 C.3       11 UNK         0.1003 
     66 C          34.2039   29.0371    6.7028 C.2       11 UNK         0.5709 
     67 N          33.4926   30.1127    7.0220 N.am      11 UNK        -0.7358 
     68 O          34.3407   28.1317    7.5218 O.2       11 UNK        -0.4999 
     69 C69        34.9446   27.5160    4.7055 C.3       12 UNK        -0.0954 
     70 S70        33.3286   26.8279    4.2025 S.3       12 UNK        -0.2268 
     71 C71        33.5342   25.1059    4.7501 C.3       12 UNK         0.0203 
     72 H72        27.5232   19.8780    1.5940 H         1 UNK         0.0888 
     73 H73        25.9257   19.4896    0.9533 H         1 UNK         0.0888 
     74 H74        27.2715   18.3726    0.7081 H         1 UNK         0.0888 
     75 H75        28.5253   21.4656    0.3728 H         1 UNK         0.3017 
     76 H76        28.6875   21.3280   -2.5191 H         1 UNK         0.0873 
     77 H77        30.7036   22.0138   -1.4625 H         1 UNK         0.0745 
     78 H78        30.0862   23.4392   -2.2249 H         1 UNK         0.0745 
     79 H79        30.7785   21.5302    1.0489 H         1 UNK         0.0705 
     80 H80        32.1000   22.5899    0.6234 H         1 UNK         0.0705 
     81 H81        32.9868   24.1967    2.2469 H         1 UNK         0.1334 
     82 H82        31.5225   24.0558    6.2759 H         1 UNK         0.1417 
     83 H83        29.4953   21.8859    3.1810 H         1 UNK         0.1562 
     84 H84        29.6652   22.6661    6.8629 H         1 UNK         0.0748 
     85 H85        29.3073   21.3386    5.7879 H         1 UNK         0.0748 
     86 H86        28.7344   24.9828    6.6549 H         1 UNK         0.0940 
     87 H87        27.0522   25.2841    6.3134 H         1 UNK         0.0940 
     88 H88        29.2986   25.3029    4.2240 H         1 UNK         0.0703 
     89 H89        26.4912   25.2035    3.7925 H         1 UNK         0.3081 
     90 H90        26.1720   24.7890    1.3193 H         1 UNK         0.0719 
     91 H91        25.3554   27.6855    1.9190 H         1 UNK         0.0809 
     92 H92        24.3547   26.5470    1.0182 H         1 UNK         0.0809 
     93 H93        24.7539   26.2336    2.6967 H         1 UNK         0.0809 
     94 H94        26.9291   25.3440   -0.6454 H         1 UNK         0.2990 
     95 H95        27.1026   28.1520   -2.6016 H         1 UNK         0.0690 
     96 H96        29.5396   27.7692   -3.0339 H         1 UNK         0.0788 
     97 H97        29.7017   26.9877   -1.4581 H         1 UNK         0.0788 
     98 H98        29.2923   28.6933   -1.5629 H         1 UNK         0.0788 
     99 H99        28.2646   25.5038   -2.8203 H         1 UNK         0.2993 
    100 H100       25.3179   23.7944   -3.6160 H         1 UNK         0.0949 
    101 H101       26.3327   23.2991   -5.8261 H         1 UNK         0.0767 
    102 H102       25.6682   24.9231   -5.8237 H         1 UNK         0.0767 
    103 H103       27.4052   24.6929   -5.6790 H         1 UNK         0.0767 
    104 H104       27.9878   22.9685   -3.9601 H         1 UNK         0.3013 
    105 H105       30.6047   26.8048    5.0393 H         1 UNK         0.3121 
    106 H106       31.5296   28.6843    5.6227 H         1 UNK         0.0774 
    107 H107       30.4127   30.4441    6.9267 H         1 UNK         0.0815 
    108 H108       28.8348   29.7568    6.5926 H         1 UNK         0.0815 
    109 H109       30.0008   28.8625    7.5695 H         1 UNK         0.0815 
    110 H110       28.5179   29.2225    3.8727 H         1 UNK         0.2987 
    111 H111       27.8811   30.4095    2.1177 H         1 UNK         0.0949 
    112 H112       30.8166   30.4482    1.2295 H         1 UNK         0.0806 
    113 H113       29.7217   29.0899    1.0009 H         1 UNK         0.0806 
    114 H114       29.3935   30.6098    0.1999 H         1 UNK         0.0806 
    115 H115       29.7554   32.5130    0.8023 H         1 UNK         0.3010 
    116 H116       28.9478   34.8119    2.4368 H         1 UNK         0.0829 
    117 H117       28.7044   34.8690   -0.0390 H         1 UNK         0.0813 
    118 H118       29.8212   36.1074    0.5069 H         1 UNK         0.0813 
    119 H119       30.4423   34.6391   -0.2348 H         1 UNK         0.0813 
    120 H120       30.4276   33.4910    4.0767 H         1 UNK         0.3038 
    121 H121       32.1694   33.3705    5.4453 H         1 UNK         0.0769 
    122 H122       31.8200   35.8381    5.6836 H         1 UNK         0.0811 
    123 H123       32.9881   36.1326    4.3961 H         1 UNK         0.0811 
    124 H124       33.5048   35.3986    5.9064 H         1 UNK         0.0811 
    125 H125       32.4744   31.8744    3.2257 H         1 UNK         0.3204 
    126 H126       35.1749   32.2205    2.0793 H         1 UNK         0.0748 
    127 H127       33.2593   31.4656    0.6307 H         1 UNK         0.0771 
    128 H128       34.5525   30.2781    0.6981 H         1 UNK         0.0771 
    129 H129       33.0871   30.0200    1.6305 H         1 UNK         0.0771 
    130 H130       33.3863   30.1151    4.3511 H         1 UNK         0.2980 
    131 H131       35.9127   29.2228    5.5352 H         1 UNK         0.0545 
    132 H132       33.4218   30.8942    6.3930 H         1 UNK         0.3459 
    133 H133       33.0753   30.1633    7.9376 H         1 UNK         0.3459 
    134 H134       35.4263   26.8397    5.4137 H         1 UNK         0.0616 
    135 H135       35.5894   27.5167    3.8256 H         1 UNK         0.0616 
    136 H136       33.6414   25.0879    5.8359 H         1 UNK         0.0634 
    137 H137       34.4635   24.7071    4.3401 H         1 UNK         0.0634 
@<TRIPOS>BOND
     1    1    2 1    
     2    1   72 1    
     3    1   73 1    
     4    1   74 1    
     5    2    3 2    
     6    2    4 am   BACKBONE|DICT|INTERRES
     7    4    5 1    
     8    4   75 1    
     9    5    6 1    
    10    5   35 1    
    11    5   76 1    
    12    6    7 1    
    13    6   77 1    
    14    6   78 1    
    15    7    8 1    
    16    8    9 1    
    17    8   79 1    
    18    8   80 1    
    19    9   10 ar   
    20    9   14 ar   
    21   10   11 ar   
    22   10   81 1    
    23   11   12 ar   
    24   11   71 1    
    25   12   13 ar   
    26   12   82 1    
    27   13   14 ar   
    28   13   15 1    
    29   14   83 1    
    30   15   16 1    
    31   15   84 1    
    32   15   85 1    
    33   16   17 1    
    34   17   18 1    
    35   17   86 1    
    36   17   87 1    
    37   18   19 1    
    38   18   37 1    
    39   18   88 1    
    40   19   20 am   BACKBONE|DICT|INTERRES
    41   19   89 1    
    42   20   21 2    
    43   20   22 1    
    44   22   23 1    
    45   22   24 1    
    46   22   90 1    
    47   23   91 1    
    48   23   92 1    
    49   23   93 1    
    50   24   25 am   BACKBONE|DICT|INTERRES
    51   24   94 1    
    52   25   26 2    
    53   25   27 1    
    54   27   28 1    
    55   27   29 1    
    56   27   95 1    
    57   28   96 1    
    58   28   97 1    
    59   28   98 1    
    60   29   30 am   BACKBONE|DICT|INTERRES
    61   29   99 1    
    62   30   31 2    
    63   30   32 1    
    64   32   33 1    
    65   32   34 1    
    66   32  100 1    
    67   33  101 1    
    68   33  102 1    
    69   33  103 1    
    70   34   35 am   BACKBONE|DICT|INTERRES
    71   34  104 1    
    72   35   36 2    
    73   37   38 2    
    74   37   39 am   BACKBONE|DICT|INTERRES
    75   39   40 1    
    76   39  105 1    
    77   40   41 1    
    78   40   42 1    
    79   40  106 1    
    80   41  107 1    
    81   41  108 1    
    82   41  109 1    
    83   42   43 2    
    84   42   44 am   BACKBONE|DICT|INTERRES
    85   44   45 1    
    86   44  110 1    
    87   45   46 1    
    88   45   47 1    
    89   45  111 1    
    90   46  112 1    
    91   46  113 1    
    92   46  114 1    
    93   47   48 2    
    94   47   49 am   BACKBONE|DICT|INTERRES
    95   49   50 1    
    96   49  115 1    
    97   50   51 1    
    98   50   52 1    
    99   50  116 1    
   100   51  117 1    
   101   51  118 1    
   102   51  119 1    
   103   52   53 2    
   104   52   54 am   BACKBONE|DICT|INTERRES
   105   54   55 1    
   106   54  120 1    
   107   55   56 1    
   108   55   57 1    
   109   55  121 1    
   110   56  122 1    
   111   56  123 1    
   112   56  124 1    
   113   57   58 2    
   114   57   59 am   BACKBONE|DICT|INTERRES
   115   59   60 1    
   116   59  125 1    
   117   60   61 1    
   118   60   62 1    
   119   60  126 1    
   120   61  127 1    
   121   61  128 1    
   122   61  129 1    
   123   62   63 2    
   124   62   64 am   BACKBONE|DICT|INTERRES
   125   64   65 1    
   126   64  130 1    
   127   65   66 1    
   128   65   69 1    
   129   65  131 1    
   130   66   67 am   BACKBONE|DICT|INTERRES
   131   66   68 2    
   132   67  132 1    
   133   67  133 1    
   134   69   70 1    
   135   69  134 1    
   136   69  135 1    
   137   70   71 1    
   138   71  136 1    
   139   71  137 1    
@<TRIPOS>SUBSTRUCTURE
     1 UNK         1 GROUP             0       ****    0 ROOT    
