@<TRIPOS>MOLECULE
3R136
137   139    1
SMALL
USER_CHARGES


@<TRIPOS>ATOM
      1 CA         29.7951   25.7099    3.7268 C.3       0 UNK        -0.1979 
      2 C          28.8697   24.5099    3.6253 C.2       0 UNK         0.4864 
      3 O          27.8693   24.4540    4.3405 O.2       0 UNK        -0.5359 
      4 N          29.2110   23.5435    2.7625 N.am      1 UNK        -0.4318 
      5 CA         28.5143   22.2605    2.6310 C.3       1 UNK         0.0824 
      6 C6         29.3230   21.2340    1.8023 C.3       12 UNK        -0.0944 
      7 S7         30.8658   20.7491    2.6462 S.3       12 UNK        -0.2672 
      8 C8         32.1392   21.2029    1.4289 C.3       12 UNK         0.0333 
      9 C9         32.4362   22.6955    1.4308 C.ar      12 UNK        -0.0807 
     10 C10        33.2242   23.2493    2.4443 C.ar      12 UNK        -0.0894 
     11 C11        33.5651   24.6046    2.4192 C.ar      12 UNK        -0.0804 
     12 C12        33.0946   25.4121    1.3800 C.ar      12 UNK        -0.0824 
     13 C13        32.3008   24.8741    0.3628 C.ar      12 UNK        -0.0762 
     14 C14        31.9785   23.5120    0.3924 C.ar      12 UNK        -0.0782 
     15 C15        31.8592   25.7574   -0.7991 C.3       12 UNK         0.0230 
     16 S16        30.0912   25.5876   -1.1981 S.3       12 UNK        -0.2608 
     17 C17        29.2989   26.4064    0.2266 C.3       12 UNK        -0.0989 
     18 CA         28.6987   27.7878   -0.1293 C.3       5 UNK         0.0716 
     19 N          27.8013   27.7239   -1.2856 N.am      5 UNK        -0.4135 
     20 C          27.3869   28.7926   -1.9805 C.2       4 UNK         0.5031 
     21 O          27.7447   29.9453   -1.7306 O.2       4 UNK        -0.5229 
     22 CA         26.4424   28.5601   -3.1747 C.3       4 UNK         0.0329 
     23 CB         27.1888   28.7876   -4.5003 C.3       4 UNK        -0.2001 
     24 N          25.8271   27.2323   -3.2040 N.am      4 UNK        -0.4303 
     25 C          24.8378   26.8210   -2.4005 C.2       3 UNK         0.5044 
     26 O          24.3250   27.5231   -1.5282 O.2       3 UNK        -0.5152 
     27 CA         24.3107   25.3888   -2.6132 C.3       3 UNK         0.0319 
     28 CB         24.8620   24.6879   -3.8779 C.3       3 UNK        -0.2001 
     29 N          24.5127   24.5370   -1.4369 N.am      3 UNK        -0.4354 
     30 C          25.6764   24.2406   -0.8398 C.2       2 UNK         0.4964 
     31 O          26.7650   24.7276   -1.1537 O.2       2 UNK        -0.5047 
     32 CA         25.6032   23.1705    0.2570 C.3       2 UNK         0.0288 
     33 CB         25.2143   21.8048   -0.3562 C.3       2 UNK        -0.2113 
     34 N          26.8882   23.0604    0.9516 N.am      2 UNK        -0.4145 
     35 C          27.0730   22.3902    2.0978 C.2       1 UNK         0.5006 
     36 O          26.1563   21.8598    2.7293 O.2       1 UNK        -0.5103 
     37 C          27.9701   28.3949    1.0873 C.2       5 UNK         0.5055 
     38 O          26.7696   28.1701    1.2604 O.2       5 UNK        -0.5220 
     39 N          28.7162   29.1249    1.9212 N.am      6 UNK        -0.4450 
     40 CA         28.2387   29.7583    3.1475 C.3       6 UNK         0.0367 
     41 CB         28.1733   31.2804    2.9381 C.3       6 UNK        -0.1929 
     42 C          29.2047   29.4141    4.2831 C.2       6 UNK         0.5070 
     43 O          30.3855   29.1785    4.0265 O.2       6 UNK        -0.5237 
     44 N          28.6928   29.4166    5.5190 N.am      7 UNK        -0.4739 
     45 CA         29.4331   29.0777    6.7415 C.3       7 UNK         0.0276 
     46 CB         28.4214   28.7194    7.8440 C.3       7 UNK        -0.1927 
     47 C          30.4102   30.1697    7.2251 C.2       7 UNK         0.5013 
     48 O          31.0807   29.9645    8.2376 O.2       7 UNK        -0.5193 
     49 N          30.4699   31.3007    6.5157 N.am      8 UNK        -0.4253 
     50 CA         31.4158   32.3917    6.7135 C.3       8 UNK         0.0242 
     51 CB         30.7099   33.5605    7.4204 C.3       8 UNK        -0.2000 
     52 C          31.9282   32.8158    5.3337 C.2       8 UNK         0.4948 
     53 O          31.2051   32.6595    4.3448 O.2       8 UNK        -0.5275 
     54 N          33.1590   33.3434    5.2908 N.am      9 UNK        -0.4246 
     55 CA         33.9112   33.8197    4.1191 C.3       9 UNK         0.0261 
     56 CB         33.2012   34.9998    3.4249 C.3       9 UNK        -0.1959 
     57 C          34.2782   32.7109    3.1153 C.2       9 UNK         0.5033 
     58 O          35.4626   32.5159    2.8394 O.2       9 UNK        -0.5390 
     59 N          33.2687   31.9983    2.6016 N.am      10 UNK        -0.4215 
     60 CA         33.4181   30.8333    1.7254 C.3       10 UNK         0.0240 
     61 CB         32.0862   30.5712    1.0042 C.3       10 UNK        -0.1982 
     62 C          33.8747   29.5758    2.4861 C.2       10 UNK         0.4970 
     63 O          34.5155   28.7108    1.8894 O.2       10 UNK        -0.4916 
     64 N          33.5415   29.5029    3.7774 N.am      11 UNK        -0.4279 
     65 CA         33.8846   28.4256    4.7070 C.3       11 UNK         0.1003 
     66 C          34.0302   28.9829    6.1507 C.2       11 UNK         0.5709 
     67 N          34.1774   28.1205    7.1458 N.am      11 UNK        -0.7358 
     68 O          34.0373   30.1922    6.3777 O.2       11 UNK        -0.4999 
     69 C69        32.8992   27.2281    4.5725 C.3       12 UNK        -0.0954 
     70 S70        33.6349   25.6202    5.0137 S.3       12 UNK        -0.2268 
     71 C71        34.4996   25.1758    3.4763 C.3       12 UNK         0.0203 
     72 H72        30.0699   25.8834    4.7667 H         1 UNK         0.0888 
     73 H73        29.2932   26.6011    3.3565 H         1 UNK         0.0888 
     74 H74        30.7128   25.5633    3.1586 H         1 UNK         0.0888 
     75 H75        30.0652   23.6303    2.2293 H         1 UNK         0.3017 
     76 H76        28.4214   21.8554    3.6416 H         1 UNK         0.0873 
     77 H77        28.7441   20.3206    1.6499 H         1 UNK         0.0745 
     78 H78        29.5398   21.6241    0.8063 H         1 UNK         0.0745 
     79 H79        33.0545   20.6591    1.6672 H         1 UNK         0.0705 
     80 H80        31.8390   20.8621    0.4367 H         1 UNK         0.0705 
     81 H81        33.5951   22.6177    3.2403 H         1 UNK         0.1334 
     82 H82        33.3734   26.4561    1.3484 H         1 UNK         0.1417 
     83 H83        31.3898   23.0848   -0.4084 H         1 UNK         0.1562 
     84 H84        32.4417   25.4852   -1.6801 H         1 UNK         0.0748 
     85 H85        32.0762   26.8083   -0.5999 H         1 UNK         0.0748 
     86 H86        30.0352   26.5137    1.0230 H         1 UNK         0.0940 
     87 H87        28.5261   25.7391    0.6114 H         1 UNK         0.0940 
     88 H88        29.5244   28.4519   -0.3957 H         1 UNK         0.0703 
     89 H89        27.4451   26.8049   -1.5195 H         1 UNK         0.3081 
     90 H90        25.6448   29.3026   -3.1021 H         1 UNK         0.0719 
     91 H91        27.9996   28.0704   -4.6352 H         1 UNK         0.0809 
     92 H92        26.5173   28.7026   -5.3549 H         1 UNK         0.0809 
     93 H93        27.6284   29.7856   -4.5356 H         1 UNK         0.0809 
     94 H94        26.1939   26.5769   -3.8791 H         1 UNK         0.2990 
     95 H95        23.2313   25.4850   -2.7406 H         1 UNK         0.0690 
     96 H96        24.3891   23.7159   -4.0192 H         1 UNK         0.0788 
     97 H97        25.9385   24.5199   -3.8239 H         1 UNK         0.0788 
     98 H98        24.6566   25.2709   -4.7769 H         1 UNK         0.0788 
     99 H99        23.6736   24.1075   -1.0724 H         1 UNK         0.2993 
    100 H100       24.8431   23.4815    0.9771 H         1 UNK         0.0949 
    101 H101       24.2648   21.8585   -0.8899 H         1 UNK         0.0767 
    102 H102       25.9668   21.4584   -1.0658 H         1 UNK         0.0767 
    103 H103       25.0981   21.0348    0.4062 H         1 UNK         0.0767 
    104 H104       27.6621   23.5162    0.4845 H         1 UNK         0.3013 
    105 H105       29.7159   29.1838    1.7839 H         1 UNK         0.3121 
    106 H106       27.2468   29.3863    3.4136 H         1 UNK         0.0774 
    107 H107       27.4911   31.5378    2.1278 H         1 UNK         0.0815 
    108 H108       29.1516   31.6976    2.6954 H         1 UNK         0.0815 
    109 H109       27.8166   31.7875    3.8354 H         1 UNK         0.0815 
    110 H110       27.7166   29.6486    5.6397 H         1 UNK         0.2987 
    111 H111       30.0367   28.1908    6.5362 H         1 UNK         0.0949 
    112 H112       28.9292   28.4020    8.7560 H         1 UNK         0.0806 
    113 H113       27.7737   27.8978    7.5374 H         1 UNK         0.0806 
    114 H114       27.7893   29.5696    8.1028 H         1 UNK         0.0806 
    115 H115       29.9459   31.3556    5.6521 H         1 UNK         0.3010 
    116 H116       32.2621   32.0546    7.3161 H         1 UNK         0.0829 
    117 H117       30.3296   33.2593    8.3967 H         1 UNK         0.0813 
    118 H118       31.3956   34.3931    7.5820 H         1 UNK         0.0813 
    119 H119       29.8694   33.9370    6.8355 H         1 UNK         0.0813 
    120 H120       33.6720   33.3856    6.1613 H         1 UNK         0.3038 
    121 H121       34.8537   34.2022    4.5148 H         1 UNK         0.0769 
    122 H122       32.2397   34.7126    2.9986 H         1 UNK         0.0811 
    123 H123       33.8102   35.3934    2.6100 H         1 UNK         0.0811 
    124 H124       33.0250   35.8193    4.1216 H         1 UNK         0.0811 
    125 H125       32.3345   32.2137    2.9472 H         1 UNK         0.3204 
    126 H126       34.1778   31.0583    0.9738 H         1 UNK         0.0748 
    127 H127       31.8068   31.4138    0.3714 H         1 UNK         0.0771 
    128 H128       32.1515   29.6908    0.3631 H         1 UNK         0.0771 
    129 H129       31.2777   30.4052    1.7151 H         1 UNK         0.0771 
    130 H130       33.0269   30.2650    4.1947 H         1 UNK         0.2980 
    131 H131       34.8872   28.0918    4.4350 H         1 UNK         0.0545 
    132 H132       34.2728   28.4666    8.0872 H         1 UNK         0.3459 
    133 H133       34.1691   27.1278    6.9654 H         1 UNK         0.3459 
    134 H134       32.0166   27.3874    5.1929 H         1 UNK         0.0616 
    135 H135       32.5232   27.1539    3.5524 H         1 UNK         0.0616 
    136 H136       35.0311   26.0461    3.0883 H         1 UNK         0.0634 
    137 H137       35.2672   24.4379    3.7139 H         1 UNK         0.0634 
@<TRIPOS>BOND
     1    1    2 1    
     2    1   72 1    
     3    1   73 1    
     4    1   74 1    
     5    2    3 2    
     6    2    4 am   BACKBONE|DICT|INTERRES
     7    4    5 1    
     8    4   75 1    
     9    5    6 1    
    10    5   35 1    
    11    5   76 1    
    12    6    7 1    
    13    6   77 1    
    14    6   78 1    
    15    7    8 1    
    16    8    9 1    
    17    8   79 1    
    18    8   80 1    
    19    9   10 ar   
    20    9   14 ar   
    21   10   11 ar   
    22   10   81 1    
    23   11   12 ar   
    24   11   71 1    
    25   12   13 ar   
    26   12   82 1    
    27   13   14 ar   
    28   13   15 1    
    29   14   83 1    
    30   15   16 1    
    31   15   84 1    
    32   15   85 1    
    33   16   17 1    
    34   17   18 1    
    35   17   86 1    
    36   17   87 1    
    37   18   19 1    
    38   18   37 1    
    39   18   88 1    
    40   19   20 am   BACKBONE|DICT|INTERRES
    41   19   89 1    
    42   20   21 2    
    43   20   22 1    
    44   22   23 1    
    45   22   24 1    
    46   22   90 1    
    47   23   91 1    
    48   23   92 1    
    49   23   93 1    
    50   24   25 am   BACKBONE|DICT|INTERRES
    51   24   94 1    
    52   25   26 2    
    53   25   27 1    
    54   27   28 1    
    55   27   29 1    
    56   27   95 1    
    57   28   96 1    
    58   28   97 1    
    59   28   98 1    
    60   29   30 am   BACKBONE|DICT|INTERRES
    61   29   99 1    
    62   30   31 2    
    63   30   32 1    
    64   32   33 1    
    65   32   34 1    
    66   32  100 1    
    67   33  101 1    
    68   33  102 1    
    69   33  103 1    
    70   34   35 am   BACKBONE|DICT|INTERRES
    71   34  104 1    
    72   35   36 2    
    73   37   38 2    
    74   37   39 am   BACKBONE|DICT|INTERRES
    75   39   40 1    
    76   39  105 1    
    77   40   41 1    
    78   40   42 1    
    79   40  106 1    
    80   41  107 1    
    81   41  108 1    
    82   41  109 1    
    83   42   43 2    
    84   42   44 am   BACKBONE|DICT|INTERRES
    85   44   45 1    
    86   44  110 1    
    87   45   46 1    
    88   45   47 1    
    89   45  111 1    
    90   46  112 1    
    91   46  113 1    
    92   46  114 1    
    93   47   48 2    
    94   47   49 am   BACKBONE|DICT|INTERRES
    95   49   50 1    
    96   49  115 1    
    97   50   51 1    
    98   50   52 1    
    99   50  116 1    
   100   51  117 1    
   101   51  118 1    
   102   51  119 1    
   103   52   53 2    
   104   52   54 am   BACKBONE|DICT|INTERRES
   105   54   55 1    
   106   54  120 1    
   107   55   56 1    
   108   55   57 1    
   109   55  121 1    
   110   56  122 1    
   111   56  123 1    
   112   56  124 1    
   113   57   58 2    
   114   57   59 am   BACKBONE|DICT|INTERRES
   115   59   60 1    
   116   59  125 1    
   117   60   61 1    
   118   60   62 1    
   119   60  126 1    
   120   61  127 1    
   121   61  128 1    
   122   61  129 1    
   123   62   63 2    
   124   62   64 am   BACKBONE|DICT|INTERRES
   125   64   65 1    
   126   64  130 1    
   127   65   66 1    
   128   65   69 1    
   129   65  131 1    
   130   66   67 am   BACKBONE|DICT|INTERRES
   131   66   68 2    
   132   67  132 1    
   133   67  133 1    
   134   69   70 1    
   135   69  134 1    
   136   69  135 1    
   137   70   71 1    
   138   71  136 1    
   139   71  137 1    
@<TRIPOS>SUBSTRUCTURE
     1 UNK         1 GROUP             0       ****    0 ROOT    
