@<TRIPOS>MOLECULE
3R136
137   139    1
SMALL
USER_CHARGES


@<TRIPOS>ATOM
      1 CA         26.6610   21.1404    2.9230 C.3       0 UNK        -0.1979 
      2 C          27.1791   20.8853    1.5170 C.2       0 UNK         0.4864 
      3 O          26.5800   20.1058    0.7735 O.2       0 UNK        -0.5359 
      4 N          28.2897   21.5345    1.1443 N.am      1 UNK        -0.4318 
      5 CA         28.9684   21.3886   -0.1495 C.3       1 UNK         0.0824 
      6 C6         30.4429   21.8699   -0.0881 C.3       12 UNK        -0.0944 
      7 S7         31.4116   21.0169    1.2017 S.3       12 UNK        -0.2672 
      8 C8         32.6675   22.2748    1.6200 C.3       12 UNK         0.0333 
      9 C9         32.0752   23.5685    2.1720 C.ar      12 UNK        -0.0807 
     10 C10        32.4417   24.7995    1.6163 C.ar      12 UNK        -0.0894 
     11 C11        31.9169   25.9931    2.1216 C.ar      12 UNK        -0.0804 
     12 C12        31.0132   25.9484    3.1854 C.ar      12 UNK        -0.0824 
     13 C13        30.6261   24.7262    3.7424 C.ar      12 UNK        -0.0762 
     14 C14        31.1727   23.5413    3.2407 C.ar      12 UNK        -0.0782 
     15 C15        29.6169   24.6732    4.8803 C.3       12 UNK         0.0230 
     16 S16        27.9537   24.2716    4.2536 S.3       12 UNK        -0.2608 
     17 C17        27.0481   25.8421    4.4780 C.3       12 UNK        -0.0989 
     18 CA         27.5256   26.9870    3.5504 C.3       5 UNK         0.0716 
     19 N          27.6174   26.5660    2.1468 N.am      5 UNK        -0.4135 
     20 C          28.2029   27.2480    1.1525 C.2       4 UNK         0.5031 
     21 O          28.7752   28.3233    1.3147 O.2       4 UNK        -0.5229 
     22 CA         28.0850   26.6749   -0.2719 C.3       4 UNK         0.0329 
     23 CB         29.4243   26.0603   -0.7022 C.3       4 UNK        -0.2001 
     24 N          26.9991   25.6978   -0.4480 N.am      4 UNK        -0.4303 
     25 C          25.6941   25.9725   -0.2756 C.2       3 UNK         0.5044 
     26 O          25.2855   27.0902    0.0464 O.2       3 UNK        -0.5152 
     27 CA         24.6791   24.8159   -0.3984 C.3       3 UNK         0.0319 
     28 CB         23.3472   25.2684   -1.0349 C.3       3 UNK        -0.2001 
     29 N          25.1971   23.6012   -1.0421 N.am      3 UNK        -0.4354 
     30 C          25.5529   23.4388   -2.3259 C.2       2 UNK         0.4964 
     31 O          25.4807   24.3232   -3.1805 O.2       2 UNK        -0.5047 
     32 CA         26.1101   22.0458   -2.6913 C.3       2 UNK         0.0288 
     33 CB         26.7455   22.0008   -4.0979 C.3       2 UNK        -0.2113 
     34 N          27.0484   21.5274   -1.6833 N.am      2 UNK        -0.4145 
     35 C          28.1794   22.1127   -1.2615 C.2       1 UNK         0.5006 
     36 O          28.5731   23.2016   -1.6786 O.2       1 UNK        -0.5103 
     37 C          26.6966   28.2733    3.7738 C.2       5 UNK         0.5055 
     38 O          26.7128   28.8061    4.8845 O.2       5 UNK        -0.5220 
     39 N          26.0099   28.7705    2.7333 N.am      6 UNK        -0.4450 
     40 CA         25.4315   30.1143    2.6914 C.3       6 UNK         0.0367 
     41 CB         24.4967   30.2191    1.4758 C.3       6 UNK        -0.1929 
     42 C          26.4986   31.2295    2.6496 C.2       6 UNK         0.5070 
     43 O          26.2048   32.3482    3.0729 O.2       6 UNK        -0.5237 
     44 N          27.7039   30.9222    2.1471 N.am      7 UNK        -0.4739 
     45 CA         28.8607   31.8181    2.1449 C.3       7 UNK         0.0276 
     46 CB         29.7064   31.5405    0.8899 C.3       7 UNK        -0.1927 
     47 C          29.7057   31.6155    3.4136 C.2       7 UNK         0.5013 
     48 O          29.6333   30.5601    4.0484 O.2       7 UNK        -0.5193 
     49 N          30.5130   32.6308    3.7367 N.am      8 UNK        -0.4253 
     50 CA         31.4572   32.6387    4.8520 C.3       8 UNK         0.0242 
     51 CB         30.9756   33.6422    5.9212 C.3       8 UNK        -0.2000 
     52 C          32.8604   32.9214    4.2930 C.2       8 UNK         0.4948 
     53 O          33.2975   32.1971    3.3958 O.2       8 UNK        -0.5275 
     54 N          33.5476   33.9458    4.8227 N.am      9 UNK        -0.4246 
     55 CA         34.9177   34.3553    4.4884 C.3       9 UNK         0.0261 
     56 CB         34.9820   34.9534    3.0634 C.3       9 UNK        -0.1959 
     57 C          35.9024   33.1989    4.7385 C.2       9 UNK         0.5033 
     58 O          36.0899   32.8208    5.8963 O.2       9 UNK        -0.5390 
     59 N          36.4604   32.6171    3.6679 N.am      10 UNK        -0.4215 
     60 CA         37.3120   31.4235    3.7053 C.3       10 UNK         0.0240 
     61 CB         37.8496   31.1398    2.2932 C.3       10 UNK        -0.1982 
     62 C          36.6115   30.1739    4.2755 C.2       10 UNK         0.4970 
     63 O          37.2916   29.3204    4.8464 O.2       10 UNK        -0.4916 
     64 N          35.2816   30.0991    4.1335 N.am      11 UNK        -0.4279 
     65 CA         34.4303   29.0622    4.7350 C.3       11 UNK         0.1003 
     66 C          33.9266   29.4273    6.1635 C.2       11 UNK         0.5709 
     67 N          34.2985   30.5624    6.7469 N.am      11 UNK        -0.7358 
     68 O          33.1924   28.6521    6.7711 O.2       11 UNK        -0.4999 
     69 C69        33.2599   28.6688    3.7956 C.3       12 UNK        -0.0954 
     70 S70        33.8449   27.9949    2.2041 S.3       12 UNK        -0.2268 
     71 C71        32.3048   27.3291    1.5016 C.3       12 UNK         0.0203 
     72 H72        25.9650   21.9788    2.9246 H         1 UNK         0.0888 
     73 H73        26.1394   20.2619    3.3020 H         1 UNK         0.0888 
     74 H74        27.4766   21.3646    3.6100 H         1 UNK         0.0888 
     75 H75        28.7354   22.1663    1.7944 H         1 UNK         0.3017 
     76 H76        28.9851   20.3270   -0.4066 H         1 UNK         0.0873 
     77 H77        30.9388   21.7036   -1.0462 H         1 UNK         0.0745 
     78 H78        30.4819   22.9450    0.0906 H         1 UNK         0.0745 
     79 H79        33.3472   21.8570    2.3637 H         1 UNK         0.0705 
     80 H80        33.2684   22.4721    0.7308 H         1 UNK         0.0705 
     81 H81        33.1397   24.8332    0.7909 H         1 UNK         0.1334 
     82 H82        30.6159   26.8739    3.5734 H         1 UNK         0.1417 
     83 H83        30.8839   22.5931    3.6739 H         1 UNK         0.1562 
     84 H84        29.6039   25.6148    5.4313 H         1 UNK         0.0748 
     85 H85        29.9159   23.9082    5.5983 H         1 UNK         0.0748 
     86 H86        27.1300   26.1382    5.5259 H         1 UNK         0.0940 
     87 H87        25.9892   25.6371    4.3082 H         1 UNK         0.0940 
     88 H88        28.5307   27.2617    3.8632 H         1 UNK         0.0703 
     89 H89        27.1908   25.6791    1.9272 H         1 UNK         0.3081 
     90 H90        27.8731   27.5161   -0.9350 H         1 UNK         0.0719 
     91 H91        30.2298   26.7911   -0.6265 H         1 UNK         0.0809 
     92 H92        29.6962   25.2100   -0.0763 H         1 UNK         0.0809 
     93 H93        29.3946   25.7260   -1.7390 H         1 UNK         0.0809 
     94 H94        27.2718   24.7719   -0.7546 H         1 UNK         0.2990 
     95 H95        24.4561   24.5234    0.6287 H         1 UNK         0.0690 
     96 H96        22.6344   24.4459   -1.0933 H         1 UNK         0.0788 
     97 H97        23.4901   25.6623   -2.0414 H         1 UNK         0.0788 
     98 H98        22.8792   26.0575   -0.4448 H         1 UNK         0.0788 
     99 H99        25.3060   22.8036   -0.4308 H         1 UNK         0.2993 
    100 H100       25.2536   21.3697   -2.6951 H         1 UNK         0.0949 
    101 H101       27.5866   22.6896   -4.1851 H         1 UNK         0.0767 
    102 H102       27.1052   21.0003   -4.3384 H         1 UNK         0.0767 
    103 H103       26.0195   22.2757   -4.8642 H         1 UNK         0.0767 
    104 H104       26.7602   20.6860   -1.1922 H         1 UNK         0.3013 
    105 H105       25.9999   28.2496    1.8645 H         1 UNK         0.3121 
    106 H106       24.8369   30.2592    3.5959 H         1 UNK         0.0774 
    107 H107       25.0355   30.0693    0.5391 H         1 UNK         0.0815 
    108 H108       23.6983   29.4783    1.5235 H         1 UNK         0.0815 
    109 H109       24.0254   31.2018    1.4288 H         1 UNK         0.0815 
    110 H110       27.9033   29.9603    1.8854 H         1 UNK         0.2987 
    111 H111       28.5193   32.8554    2.1116 H         1 UNK         0.0949 
    112 H112       29.1113   31.6297   -0.0191 H         1 UNK         0.0806 
    113 H113       30.5316   32.2489    0.8078 H         1 UNK         0.0806 
    114 H114       30.1422   30.5409    0.9086 H         1 UNK         0.0806 
    115 H115       30.5558   33.4308    3.1208 H         1 UNK         0.3010 
    116 H116       31.5113   31.6509    5.3150 H         1 UNK         0.0829 
    117 H117       30.9202   34.6609    5.5349 H         1 UNK         0.0813 
    118 H118       31.6326   33.6432    6.7920 H         1 UNK         0.0813 
    119 H119       29.9812   33.3757    6.2803 H         1 UNK         0.0813 
    120 H120       33.1141   34.4601    5.5767 H         1 UNK         0.3038 
    121 H121       35.1908   35.1452    5.1899 H         1 UNK         0.0769 
    122 H122       35.9917   35.2885    2.8216 H         1 UNK         0.0811 
    123 H123       34.3321   35.8246    2.9807 H         1 UNK         0.0811 
    124 H124       34.6720   34.2446    2.2949 H         1 UNK         0.0811 
    125 H125       36.2170   32.9742    2.7551 H         1 UNK         0.3204 
    126 H126       38.1597   31.6457    4.3569 H         1 UNK         0.0748 
    127 H127       37.0431   30.9311    1.5888 H         1 UNK         0.0771 
    128 H128       38.4238   31.9831    1.9088 H         1 UNK         0.0771 
    129 H129       38.5125   30.2732    2.2950 H         1 UNK         0.0771 
    130 H130       34.7832   30.8563    3.6769 H         1 UNK         0.2980 
    131 H131       35.0322   28.1625    4.8748 H         1 UNK         0.0545 
    132 H132       33.9675   30.7585    7.6777 H         1 UNK         0.3459 
    133 H133       34.9407   31.2063    6.2995 H         1 UNK         0.3459 
    134 H134       32.6113   29.5248    3.6007 H         1 UNK         0.0616 
    135 H135       32.6382   27.9120    4.2735 H         1 UNK         0.0616 
    136 H136       32.4409   27.2057    0.4265 H         1 UNK         0.0634 
    137 H137       31.5034   28.0596    1.6242 H         1 UNK         0.0634 
@<TRIPOS>BOND
     1    1    2 1    
     2    1   72 1    
     3    1   73 1    
     4    1   74 1    
     5    2    3 2    
     6    2    4 am   BACKBONE|DICT|INTERRES
     7    4    5 1    
     8    4   75 1    
     9    5    6 1    
    10    5   35 1    
    11    5   76 1    
    12    6    7 1    
    13    6   77 1    
    14    6   78 1    
    15    7    8 1    
    16    8    9 1    
    17    8   79 1    
    18    8   80 1    
    19    9   10 ar   
    20    9   14 ar   
    21   10   11 ar   
    22   10   81 1    
    23   11   12 ar   
    24   11   71 1    
    25   12   13 ar   
    26   12   82 1    
    27   13   14 ar   
    28   13   15 1    
    29   14   83 1    
    30   15   16 1    
    31   15   84 1    
    32   15   85 1    
    33   16   17 1    
    34   17   18 1    
    35   17   86 1    
    36   17   87 1    
    37   18   19 1    
    38   18   37 1    
    39   18   88 1    
    40   19   20 am   BACKBONE|DICT|INTERRES
    41   19   89 1    
    42   20   21 2    
    43   20   22 1    
    44   22   23 1    
    45   22   24 1    
    46   22   90 1    
    47   23   91 1    
    48   23   92 1    
    49   23   93 1    
    50   24   25 am   BACKBONE|DICT|INTERRES
    51   24   94 1    
    52   25   26 2    
    53   25   27 1    
    54   27   28 1    
    55   27   29 1    
    56   27   95 1    
    57   28   96 1    
    58   28   97 1    
    59   28   98 1    
    60   29   30 am   BACKBONE|DICT|INTERRES
    61   29   99 1    
    62   30   31 2    
    63   30   32 1    
    64   32   33 1    
    65   32   34 1    
    66   32  100 1    
    67   33  101 1    
    68   33  102 1    
    69   33  103 1    
    70   34   35 am   BACKBONE|DICT|INTERRES
    71   34  104 1    
    72   35   36 2    
    73   37   38 2    
    74   37   39 am   BACKBONE|DICT|INTERRES
    75   39   40 1    
    76   39  105 1    
    77   40   41 1    
    78   40   42 1    
    79   40  106 1    
    80   41  107 1    
    81   41  108 1    
    82   41  109 1    
    83   42   43 2    
    84   42   44 am   BACKBONE|DICT|INTERRES
    85   44   45 1    
    86   44  110 1    
    87   45   46 1    
    88   45   47 1    
    89   45  111 1    
    90   46  112 1    
    91   46  113 1    
    92   46  114 1    
    93   47   48 2    
    94   47   49 am   BACKBONE|DICT|INTERRES
    95   49   50 1    
    96   49  115 1    
    97   50   51 1    
    98   50   52 1    
    99   50  116 1    
   100   51  117 1    
   101   51  118 1    
   102   51  119 1    
   103   52   53 2    
   104   52   54 am   BACKBONE|DICT|INTERRES
   105   54   55 1    
   106   54  120 1    
   107   55   56 1    
   108   55   57 1    
   109   55  121 1    
   110   56  122 1    
   111   56  123 1    
   112   56  124 1    
   113   57   58 2    
   114   57   59 am   BACKBONE|DICT|INTERRES
   115   59   60 1    
   116   59  125 1    
   117   60   61 1    
   118   60   62 1    
   119   60  126 1    
   120   61  127 1    
   121   61  128 1    
   122   61  129 1    
   123   62   63 2    
   124   62   64 am   BACKBONE|DICT|INTERRES
   125   64   65 1    
   126   64  130 1    
   127   65   66 1    
   128   65   69 1    
   129   65  131 1    
   130   66   67 am   BACKBONE|DICT|INTERRES
   131   66   68 2    
   132   67  132 1    
   133   67  133 1    
   134   69   70 1    
   135   69  134 1    
   136   69  135 1    
   137   70   71 1    
   138   71  136 1    
   139   71  137 1    
@<TRIPOS>SUBSTRUCTURE
     1 UNK         1 GROUP             0       ****    0 ROOT    
