@<TRIPOS>MOLECULE
3R136
137   139    1
SMALL
USER_CHARGES


@<TRIPOS>ATOM
      1 CA         26.1777   26.2623    4.8733 C.3       0 UNK        -0.1979 
      2 C          26.7492   25.6691    3.5948 C.2       0 UNK         0.4864 
      3 O          27.2546   26.4126    2.7528 O.2       0 UNK        -0.5359 
      4 N          26.6971   24.3355    3.4681 N.am      1 UNK        -0.4318 
      5 CA         27.0694   23.5376    2.2916 C.3       1 UNK         0.0824 
      6 C6         28.4868   23.8657    1.7390 C.3       12 UNK        -0.0944 
      7 S7         29.2563   22.4445    0.8937 S.3       12 UNK        -0.2672 
      8 C8         30.7606   22.1651    1.8972 C.3       12 UNK         0.0333 
      9 C9         31.8330   23.2463    1.7505 C.ar      12 UNK        -0.0807 
     10 C10        32.6599   23.5514    2.8383 C.ar      12 UNK        -0.0894 
     11 C11        33.6637   24.5195    2.7230 C.ar      12 UNK        -0.0804 
     12 C12        33.8251   25.2036    1.5149 C.ar      12 UNK        -0.0824 
     13 C13        33.0155   24.9039    0.4171 C.ar      12 UNK        -0.0762 
     14 C14        32.0387   23.9109    0.5354 C.ar      12 UNK        -0.0782 
     15 C15        33.2076   25.6400   -0.9024 C.3       12 UNK         0.0230 
     16 S16        32.4666   27.3051   -0.8806 S.3       12 UNK        -0.2608 
     17 C17        30.6872   26.9160   -0.7500 C.3       12 UNK        -0.0989 
     18 CA         29.8309   28.0071   -0.0624 C.3       5 UNK         0.0716 
     19 N          28.4201   27.6267   -0.0955 N.am      5 UNK        -0.4135 
     20 C          27.3772   28.4090    0.2076 C.2       4 UNK         0.5031 
     21 O          27.4948   29.5552    0.6408 O.2       4 UNK        -0.5229 
     22 CA         25.9718   27.8024   -0.0044 C.3       4 UNK         0.0329 
     23 CB         24.9331   28.8592   -0.4352 C.3       4 UNK        -0.2001 
     24 N          25.9637   26.6354   -0.9049 N.am      4 UNK        -0.4303 
     25 C          26.2789   26.6122   -2.2128 C.2       3 UNK         0.5044 
     26 O          26.5278   27.6238   -2.8686 O.2       3 UNK        -0.5152 
     27 CA         26.4089   25.2399   -2.9067 C.3       3 UNK         0.0319 
     28 CB         27.8138   25.0715   -3.5142 C.3       3 UNK        -0.2001 
     29 N          26.1622   24.1084   -2.0108 N.am      3 UNK        -0.4354 
     30 C          24.9654   23.5534   -1.7810 C.2       2 UNK         0.4964 
     31 O          23.9252   23.9043   -2.3382 O.2       2 UNK        -0.5047 
     32 CA         24.9201   22.4306   -0.7272 C.3       2 UNK         0.0288 
     33 CB         25.0924   21.0575   -1.3970 C.3       2 UNK        -0.2113 
     34 N          25.9130   22.5736    0.3476 N.am      2 UNK        -0.4145 
     35 C          25.9751   23.6061    1.2011 C.2       1 UNK         0.5006 
     36 O          25.2168   24.5765    1.1301 O.2       1 UNK        -0.5103 
     37 C          30.3102   28.3528    1.3631 C.2       5 UNK         0.5055 
     38 O          30.9206   29.4064    1.5490 O.2       5 UNK        -0.5220 
     39 N          29.9883   27.4961    2.3446 N.am      6 UNK        -0.4450 
     40 CA         30.3693   27.6936    3.7464 C.3       6 UNK         0.0367 
     41 CB         30.3013   26.3623    4.5103 C.3       6 UNK        -0.1929 
     42 C          29.5357   28.7875    4.4383 C.2       6 UNK         0.5070 
     43 O          29.9885   29.3530    5.4327 O.2       6 UNK        -0.5237 
     44 N          28.3417   29.0820    3.9034 N.am      7 UNK        -0.4739 
     45 CA         27.5300   30.2333    4.3001 C.3       7 UNK         0.0276 
     46 CB         26.0744   30.0320    3.8483 C.3       7 UNK        -0.1927 
     47 C          28.1021   31.5509    3.7483 C.2       7 UNK         0.5013 
     48 O          28.1081   32.5500    4.4683 O.2       7 UNK        -0.5193 
     49 N          28.5708   31.5314    2.4911 N.am      8 UNK        -0.4253 
     50 CA         29.1759   32.6748    1.8036 C.3       8 UNK         0.0242 
     51 CB         29.3190   32.3665    0.3041 C.3       8 UNK        -0.2000 
     52 C          30.5244   33.1044    2.4060 C.2       8 UNK         0.4948 
     53 O          30.7459   34.3046    2.5759 O.2       8 UNK        -0.5275 
     54 N          31.3901   32.1361    2.7295 N.am      9 UNK        -0.4246 
     55 CA         32.6672   32.3562    3.4048 C.3       9 UNK         0.0261 
     56 CB         33.7958   32.4850    2.3670 C.3       9 UNK        -0.1959 
     57 C          32.9065   31.1764    4.3476 C.2       9 UNK         0.5033 
     58 O          32.8932   30.0361    3.8868 O.2       9 UNK        -0.5390 
     59 N          33.1269   31.4577    5.6383 N.am      10 UNK        -0.4215 
     60 CA         33.1812   30.4878    6.7426 C.3       10 UNK         0.0240 
     61 CB         32.9874   31.2472    8.0700 C.3       10 UNK        -0.1982 
     62 C          34.4200   29.5616    6.7655 C.2       10 UNK         0.4970 
     63 O          34.9885   29.3342    7.8357 O.2       10 UNK        -0.4916 
     64 N          34.7916   29.0200    5.6005 N.am      11 UNK        -0.4279 
     65 CA         35.8473   28.0199    5.3771 C.3       11 UNK         0.1003 
     66 C          37.2587   28.4885    5.8509 C.2       11 UNK         0.5709 
     67 N          38.1507   27.5846    6.2367 N.am      11 UNK        -0.7358 
     68 O          37.5802   29.6753    5.8103 O.2       11 UNK        -0.4999 
     69 C69        35.4170   26.6081    5.8794 C.3       12 UNK        -0.0954 
     70 S70        33.9039   26.0248    5.0371 S.3       12 UNK        -0.2268 
     71 C71        34.6030   24.8059    3.8848 C.3       12 UNK         0.0203 
     72 H72        26.8728   26.9847    5.2997 H         1 UNK         0.0888 
     73 H73        25.2402   26.7732    4.6577 H         1 UNK         0.0888 
     74 H74        25.9838   25.4980    5.6254 H         1 UNK         0.0888 
     75 H75        26.2604   23.8048    4.2087 H         1 UNK         0.3017 
     76 H76        27.0791   22.5106    2.6608 H         1 UNK         0.0873 
     77 H77        29.1422   24.1687    2.5570 H         1 UNK         0.0745 
     78 H78        28.4622   24.7140    1.0534 H         1 UNK         0.0745 
     79 H79        30.4660   22.0600    2.9427 H         1 UNK         0.0705 
     80 H80        31.1975   21.2101    1.6030 H         1 UNK         0.0705 
     81 H81        32.5324   23.0274    3.7759 H         1 UNK         0.1334 
     82 H82        34.5897   25.9632    1.4232 H         1 UNK         0.1417 
     83 H83        31.4295   23.6647   -0.3231 H         1 UNK         0.1562 
     84 H84        32.7846   25.0689   -1.7303 H         1 UNK         0.0748 
     85 H85        34.2741   25.7330   -1.1127 H         1 UNK         0.0748 
     86 H86        30.5527   25.9723   -0.2242 H         1 UNK         0.0940 
     87 H87        30.3212   26.7466   -1.7640 H         1 UNK         0.0940 
     88 H88        29.9222   28.9195   -0.6561 H         1 UNK         0.0703 
     89 H89        28.2119   26.6980   -0.4243 H         1 UNK         0.3081 
     90 H90        25.6572   27.4262    0.9693 H         1 UNK         0.0719 
     91 H91        23.9493   28.4130   -0.5796 H         1 UNK         0.0809 
     92 H92        24.8279   29.6338    0.3254 H         1 UNK         0.0809 
     93 H93        25.2180   29.3566   -1.3625 H         1 UNK         0.0809 
     94 H94        25.7342   25.7588   -0.4468 H         1 UNK         0.2990 
     95 H95        25.6832   25.2225   -3.7227 H         1 UNK         0.0690 
     96 H96        28.5919   25.0903   -2.7504 H         1 UNK         0.0788 
     97 H97        28.0353   25.8685   -4.2255 H         1 UNK         0.0788 
     98 H98        27.8996   24.1291   -4.0556 H         1 UNK         0.0788 
     99 H99        26.9604   23.7358   -1.5170 H         1 UNK         0.2993 
    100 H100       23.9307   22.4648   -0.2657 H         1 UNK         0.0949 
    101 H101       26.0792   20.9493   -1.8493 H         1 UNK         0.0767 
    102 H102       24.9597   20.2465   -0.6805 H         1 UNK         0.0767 
    103 H103       24.3538   20.9127   -2.1869 H         1 UNK         0.0767 
    104 H104       26.5842   21.8242    0.4469 H         1 UNK         0.3013 
    105 H105       29.3599   26.7275    2.1493 H         1 UNK         0.3121 
    106 H106       31.4118   28.0126    3.7635 H         1 UNK         0.0774 
    107 H107       29.2839   25.9969    4.6191 H         1 UNK         0.0815 
    108 H108       30.7095   26.4781    5.5150 H         1 UNK         0.0815 
    109 H109       30.8876   25.5903    4.0124 H         1 UNK         0.0815 
    110 H110       28.0171   28.5278    3.1202 H         1 UNK         0.2987 
    111 H111       27.5361   30.3017    5.3904 H         1 UNK         0.0949 
    112 H112       25.9914   29.9230    2.7674 H         1 UNK         0.0806 
    113 H113       25.6350   29.1482    4.3082 H         1 UNK         0.0806 
    114 H114       25.4576   30.8844    4.1364 H         1 UNK         0.0806 
    115 H115       28.4560   30.6827    1.9446 H         1 UNK         0.3010 
    116 H116       28.4892   33.5178    1.9065 H         1 UNK         0.0829 
    117 H117       28.3518   32.1485   -0.1492 H         1 UNK         0.0813 
    118 H118       29.7441   33.2168   -0.2307 H         1 UNK         0.0813 
    119 H119       29.9704   31.5104    0.1269 H         1 UNK         0.0813 
    120 H120       31.1583   31.1626    2.5373 H         1 UNK         0.3038 
    121 H121       32.6229   33.2739    3.9954 H         1 UNK         0.0769 
    122 H122       33.8679   31.5945    1.7408 H         1 UNK         0.0811 
    123 H123       34.7616   32.6226    2.8547 H         1 UNK         0.0811 
    124 H124       33.6357   33.3419    1.7126 H         1 UNK         0.0811 
    125 H125       33.1748   32.4292    5.9098 H         1 UNK         0.3204 
    126 H126       32.3238   29.8223    6.6271 H         1 UNK         0.0748 
    127 H127       33.8151   31.9295    8.2676 H         1 UNK         0.0771 
    128 H128       32.0646   31.8278    8.0647 H         1 UNK         0.0771 
    129 H129       32.9224   30.5581    8.9133 H         1 UNK         0.0771 
    130 H130       34.2298   29.2650    4.7870 H         1 UNK         0.2980 
    131 H131       35.9464   27.9558    4.2931 H         1 UNK         0.0545 
    132 H132       37.9224   26.6038    6.2621 H         1 UNK         0.3459 
    133 H133       39.0679   27.8935    6.5184 H         1 UNK         0.3459 
    134 H134       36.2040   25.8705    5.7188 H         1 UNK         0.0616 
    135 H135       35.2319   26.6243    6.9546 H         1 UNK         0.0616 
    136 H136       34.8242   23.8853    4.4269 H         1 UNK         0.0634 
    137 H137       35.5563   25.1733    3.5012 H         1 UNK         0.0634 
@<TRIPOS>BOND
     1    1    2 1    
     2    1   72 1    
     3    1   73 1    
     4    1   74 1    
     5    2    3 2    
     6    2    4 am   BACKBONE|DICT|INTERRES
     7    4    5 1    
     8    4   75 1    
     9    5    6 1    
    10    5   35 1    
    11    5   76 1    
    12    6    7 1    
    13    6   77 1    
    14    6   78 1    
    15    7    8 1    
    16    8    9 1    
    17    8   79 1    
    18    8   80 1    
    19    9   10 ar   
    20    9   14 ar   
    21   10   11 ar   
    22   10   81 1    
    23   11   12 ar   
    24   11   71 1    
    25   12   13 ar   
    26   12   82 1    
    27   13   14 ar   
    28   13   15 1    
    29   14   83 1    
    30   15   16 1    
    31   15   84 1    
    32   15   85 1    
    33   16   17 1    
    34   17   18 1    
    35   17   86 1    
    36   17   87 1    
    37   18   19 1    
    38   18   37 1    
    39   18   88 1    
    40   19   20 am   BACKBONE|DICT|INTERRES
    41   19   89 1    
    42   20   21 2    
    43   20   22 1    
    44   22   23 1    
    45   22   24 1    
    46   22   90 1    
    47   23   91 1    
    48   23   92 1    
    49   23   93 1    
    50   24   25 am   BACKBONE|DICT|INTERRES
    51   24   94 1    
    52   25   26 2    
    53   25   27 1    
    54   27   28 1    
    55   27   29 1    
    56   27   95 1    
    57   28   96 1    
    58   28   97 1    
    59   28   98 1    
    60   29   30 am   BACKBONE|DICT|INTERRES
    61   29   99 1    
    62   30   31 2    
    63   30   32 1    
    64   32   33 1    
    65   32   34 1    
    66   32  100 1    
    67   33  101 1    
    68   33  102 1    
    69   33  103 1    
    70   34   35 am   BACKBONE|DICT|INTERRES
    71   34  104 1    
    72   35   36 2    
    73   37   38 2    
    74   37   39 am   BACKBONE|DICT|INTERRES
    75   39   40 1    
    76   39  105 1    
    77   40   41 1    
    78   40   42 1    
    79   40  106 1    
    80   41  107 1    
    81   41  108 1    
    82   41  109 1    
    83   42   43 2    
    84   42   44 am   BACKBONE|DICT|INTERRES
    85   44   45 1    
    86   44  110 1    
    87   45   46 1    
    88   45   47 1    
    89   45  111 1    
    90   46  112 1    
    91   46  113 1    
    92   46  114 1    
    93   47   48 2    
    94   47   49 am   BACKBONE|DICT|INTERRES
    95   49   50 1    
    96   49  115 1    
    97   50   51 1    
    98   50   52 1    
    99   50  116 1    
   100   51  117 1    
   101   51  118 1    
   102   51  119 1    
   103   52   53 2    
   104   52   54 am   BACKBONE|DICT|INTERRES
   105   54   55 1    
   106   54  120 1    
   107   55   56 1    
   108   55   57 1    
   109   55  121 1    
   110   56  122 1    
   111   56  123 1    
   112   56  124 1    
   113   57   58 2    
   114   57   59 am   BACKBONE|DICT|INTERRES
   115   59   60 1    
   116   59  125 1    
   117   60   61 1    
   118   60   62 1    
   119   60  126 1    
   120   61  127 1    
   121   61  128 1    
   122   61  129 1    
   123   62   63 2    
   124   62   64 am   BACKBONE|DICT|INTERRES
   125   64   65 1    
   126   64  130 1    
   127   65   66 1    
   128   65   69 1    
   129   65  131 1    
   130   66   67 am   BACKBONE|DICT|INTERRES
   131   66   68 2    
   132   67  132 1    
   133   67  133 1    
   134   69   70 1    
   135   69  134 1    
   136   69  135 1    
   137   70   71 1    
   138   71  136 1    
   139   71  137 1    
@<TRIPOS>SUBSTRUCTURE
     1 UNK         1 GROUP             0       ****    0 ROOT    
