@<TRIPOS>MOLECULE
3R136
137   139    1
SMALL
USER_CHARGES


@<TRIPOS>ATOM
      1 CA         32.2610   20.9194   -1.8582 C.3       0 UNK        -0.1979 
      2 C          31.8926   22.3098   -1.3622 C.2       0 UNK         0.4864 
      3 O          32.6256   23.2654   -1.6199 O.2       0 UNK        -0.5359 
      4 N          30.7590   22.4307   -0.6577 N.am      1 UNK        -0.4318 
      5 CA         30.2620   23.6848   -0.0692 C.3       1 UNK         0.0824 
      6 C6         29.2991   23.4255    1.1200 C.3       12 UNK        -0.0944 
      7 S7         30.0749   22.3895    2.4063 S.3       12 UNK        -0.2672 
      8 C8         28.8044   22.3733    3.7166 C.3       12 UNK         0.0333 
      9 C9         28.9019   23.5360    4.7035 C.ar      12 UNK        -0.0807 
     10 C10        30.1402   24.0101    5.1524 C.ar      12 UNK        -0.0894 
     11 C11        30.2183   25.0388    6.0971 C.ar      12 UNK        -0.0804 
     12 C12        29.0370   25.5994    6.5940 C.ar      12 UNK        -0.0824 
     13 C13        27.7903   25.1343    6.1611 C.ar      12 UNK        -0.0762 
     14 C14        27.7320   24.0925    5.2295 C.ar      12 UNK        -0.0782 
     15 C15        26.5092   25.7476    6.7204 C.3       12 UNK         0.0230 
     16 S16        25.3819   26.3753    5.4270 S.3       12 UNK        -0.2608 
     17 C17        26.4915   27.4415    4.4512 C.3       12 UNK        -0.0989 
     18 CA         26.8139   26.7928    3.0805 C.3       5 UNK         0.0716 
     19 N          25.6751   26.8828    2.1678 N.am      5 UNK        -0.4135 
     20 C          25.4782   26.0877    1.1107 C.2       4 UNK         0.5031 
     21 O          26.2231   25.1518    0.8136 O.2       4 UNK        -0.5229 
     22 CA         24.2084   26.3317    0.2675 C.3       4 UNK         0.0329 
     23 CB         23.4030   27.5942    0.6584 C.3       4 UNK        -0.2001 
     24 N          24.5012   26.3165   -1.1696 N.am      4 UNK        -0.4303 
     25 C          25.2960   27.1630   -1.8386 C.2       3 UNK         0.5044 
     26 O          25.8571   28.1402   -1.3393 O.2       3 UNK        -0.5152 
     27 CA         25.5025   26.8607   -3.3319 C.3       3 UNK         0.0319 
     28 CB         25.2604   28.1077   -4.2002 C.3       3 UNK        -0.2001 
     29 N          26.8572   26.3642   -3.5657 N.am      3 UNK        -0.4354 
     30 C          27.2950   25.1501   -3.2074 C.2       2 UNK         0.4964 
     31 O          26.5696   24.2825   -2.7165 O.2       2 UNK        -0.5047 
     32 CA         28.7737   24.8163   -3.4807 C.3       2 UNK         0.0288 
     33 CB         29.6334   26.0141   -3.9515 C.3       2 UNK        -0.2113 
     34 N          29.3880   24.1358   -2.3358 N.am      2 UNK        -0.4145 
     35 C          29.6256   24.6352   -1.1110 C.2       1 UNK         0.5006 
     36 O          29.3871   25.7988   -0.7857 O.2       1 UNK        -0.5103 
     37 C          28.0705   27.4304    2.4671 C.2       5 UNK         0.5055 
     38 O          27.9743   28.4383    1.7631 O.2       5 UNK        -0.5220 
     39 N          29.2390   26.8923    2.8469 N.am      6 UNK        -0.4450 
     40 CA         30.5604   27.4250    2.4937 C.3       6 UNK         0.0367 
     41 CB         31.6284   26.3515    2.7528 C.3       6 UNK        -0.1929 
     42 C          30.9140   28.7314    3.2322 C.2       6 UNK         0.5070 
     43 O          31.9619   29.3167    2.9575 O.2       6 UNK        -0.5237 
     44 N          30.0392   29.1865    4.1416 N.am      7 UNK        -0.4739 
     45 CA         30.1314   30.4333    4.9068 C.3       7 UNK         0.0276 
     46 CB         28.9274   30.5265    5.8561 C.3       7 UNK        -0.1927 
     47 C          30.2387   31.7007    4.0381 C.2       7 UNK         0.5013 
     48 O          30.8018   32.6932    4.4986 O.2       7 UNK        -0.5193 
     49 N          29.7808   31.6277    2.7790 N.am      8 UNK        -0.4253 
     50 CA         30.0079   32.6370    1.7379 C.3       8 UNK         0.0242 
     51 CB         29.2306   32.2369    0.4737 C.3       8 UNK        -0.2000 
     52 C          31.4988   32.8621    1.4051 C.2       8 UNK         0.4948 
     53 O          31.8574   33.9594    0.9773 O.2       8 UNK        -0.5275 
     54 N          32.3364   31.8415    1.6369 N.am      9 UNK        -0.4246 
     55 CA         33.7976   31.8888    1.5621 C.3       9 UNK         0.0261 
     56 CB         34.2741   30.8149    0.5665 C.3       9 UNK        -0.1959 
     57 C          34.4180   31.6880    2.9604 C.2       9 UNK         0.5033 
     58 O          35.5481   31.2054    3.0613 O.2       9 UNK        -0.5390 
     59 N          33.6593   32.0209    4.0190 N.am      10 UNK        -0.4215 
     60 CA         33.9940   31.8983    5.4446 C.3       10 UNK         0.0240 
     61 CB         35.0913   32.9159    5.8229 C.3       10 UNK        -0.1982 
     62 C          34.3404   30.4644    5.9004 C.2       10 UNK         0.4970 
     63 O          35.0413   30.3083    6.9020 O.2       10 UNK        -0.4916 
     64 N          33.8653   29.4497    5.1615 N.am      11 UNK        -0.4279 
     65 CA         34.2180   28.0290    5.3211 C.3       11 UNK         0.1003 
     66 C          35.7287   27.7191    5.0760 C.2       11 UNK         0.5709 
     67 N          36.4684   28.5632    4.3631 N.am      11 UNK        -0.7358 
     68 O          36.2356   26.6838    5.5019 O.2       11 UNK        -0.4999 
     69 C69        33.6431   27.4070    6.6294 C.3       12 UNK        -0.0954 
     70 S70        31.8203   27.2952    6.5779 S.3       12 UNK        -0.2268 
     71 C71        31.5835   25.4868    6.6120 C.3       12 UNK         0.0203 
     72 H72        31.5195   20.1734   -1.5702 H         1 UNK         0.0888 
     73 H73        32.3406   20.9171   -2.9456 H         1 UNK         0.0888 
     74 H74        33.2236   20.6175   -1.4448 H         1 UNK         0.0888 
     75 H75        30.2092   21.6076   -0.4534 H         1 UNK         0.3017 
     76 H76        31.1288   24.2198    0.3225 H         1 UNK         0.0873 
     77 H77        28.9895   24.3666    1.5771 H         1 UNK         0.0745 
     78 H78        28.3853   22.9365    0.7772 H         1 UNK         0.0745 
     79 H79        28.9092   21.4454    4.2804 H         1 UNK         0.0705 
     80 H80        27.8176   22.3397    3.2520 H         1 UNK         0.0705 
     81 H81        31.0502   23.5591    4.7813 H         1 UNK         0.1334 
     82 H82        29.0925   26.3889    7.3312 H         1 UNK         0.1417 
     83 H83        26.7676   23.7192    4.9114 H         1 UNK         0.1562 
     84 H84        26.7393   26.5662    7.4043 H         1 UNK         0.0748 
     85 H85        25.9845   24.9950    7.3103 H         1 UNK         0.0748 
     86 H86        27.3938   27.6280    5.0358 H         1 UNK         0.0940 
     87 H87        26.0223   28.4187    4.3208 H         1 UNK         0.0940 
     88 H88        27.0333   25.7348    3.2290 H         1 UNK         0.0703 
     89 H89        25.0327   27.6441    2.3250 H         1 UNK         0.3081 
     90 H90        23.5651   25.4697    0.4500 H         1 UNK         0.0719 
     91 H91        23.9921   28.5071    0.5626 H         1 UNK         0.0809 
     92 H92        22.5227   27.7058    0.0249 H         1 UNK         0.0809 
     93 H93        23.0432   27.5338    1.6863 H         1 UNK         0.0809 
     94 H94        24.1506   25.5115   -1.6704 H         1 UNK         0.2990 
     95 H95        24.7904   26.0935   -3.6446 H         1 UNK         0.0690 
     96 H96        25.9642   28.9083   -3.9683 H         1 UNK         0.0788 
     97 H97        25.3537   27.8763   -5.2614 H         1 UNK         0.0788 
     98 H98        24.2555   28.5019   -4.0419 H         1 UNK         0.0788 
     99 H99        27.5250   27.0260   -3.9335 H         1 UNK         0.2993 
    100 H100       28.7643   24.0871   -4.2925 H         1 UNK         0.0949 
    101 H101       29.6358   26.8311   -3.2288 H         1 UNK         0.0767 
    102 H102       30.6694   25.7123   -4.1076 H         1 UNK         0.0767 
    103 H103       29.2747   26.4106   -4.9020 H         1 UNK         0.0767 
    104 H104       29.6006   23.1589   -2.4778 H         1 UNK         0.3013 
    105 H105       29.2326   26.0882    3.4606 H         1 UNK         0.3121 
    106 H106       30.5575   27.6489    1.4246 H         1 UNK         0.0774 
    107 H107       32.5995   26.6686    2.3704 H         1 UNK         0.0815 
    108 H108       31.7479   26.1503    3.8155 H         1 UNK         0.0815 
    109 H109       31.3807   25.4105    2.2661 H         1 UNK         0.0815 
    110 H110       29.2215   28.6229    4.3089 H         1 UNK         0.2987 
    111 H111       31.0392   30.3769    5.5105 H         1 UNK         0.0949 
    112 H112       28.9779   31.4321    6.4625 H         1 UNK         0.0806 
    113 H113       27.9828   30.5515    5.3110 H         1 UNK         0.0806 
    114 H114       28.8984   29.6811    6.5440 H         1 UNK         0.0806 
    115 H115       29.3261   30.7718    2.4906 H         1 UNK         0.3010 
    116 H116       29.6088   33.5854    2.1036 H         1 UNK         0.0829 
    117 H117       28.1615   32.1587    0.6724 H         1 UNK         0.0813 
    118 H118       29.3587   32.9794   -0.3155 H         1 UNK         0.0813 
    119 H119       29.5689   31.2780    0.0780 H         1 UNK         0.0813 
    120 H120       31.9615   30.9708    2.0063 H         1 UNK         0.3038 
    121 H121       34.1323   32.8642    1.2042 H         1 UNK         0.0769 
    122 H122       35.3562   30.8522    0.4338 H         1 UNK         0.0811 
    123 H123       33.8243   30.9587   -0.4160 H         1 UNK         0.0811 
    124 H124       34.0198   29.8106    0.9085 H         1 UNK         0.0811 
    125 H125       32.7339   32.3964    3.8393 H         1 UNK         0.3204 
    126 H126       33.0910   32.1715    5.9918 H         1 UNK         0.0748 
    127 H127       35.2496   32.9436    6.9019 H         1 UNK         0.0771 
    128 H128       36.0473   32.6687    5.3599 H         1 UNK         0.0771 
    129 H129       34.8198   33.9251    5.5133 H         1 UNK         0.0771 
    130 H130       33.2919   29.6541    4.3493 H         1 UNK         0.2980 
    131 H131       33.7285   27.5235    4.4894 H         1 UNK         0.0545 
    132 H132       37.4387   28.3476    4.2003 H         1 UNK         0.3459 
    133 H133       36.0735   29.4196    3.9898 H         1 UNK         0.3459 
    134 H134       33.9337   27.9903    7.5034 H         1 UNK         0.0616 
    135 H135       34.0467   26.4083    6.8001 H         1 UNK         0.0616 
    136 H136       32.3715   25.0186    6.0201 H         1 UNK         0.0634 
    137 H137       31.7131   25.1324    7.6353 H         1 UNK         0.0634 
@<TRIPOS>BOND
     1    1    2 1    
     2    1   72 1    
     3    1   73 1    
     4    1   74 1    
     5    2    3 2    
     6    2    4 am   BACKBONE|DICT|INTERRES
     7    4    5 1    
     8    4   75 1    
     9    5    6 1    
    10    5   35 1    
    11    5   76 1    
    12    6    7 1    
    13    6   77 1    
    14    6   78 1    
    15    7    8 1    
    16    8    9 1    
    17    8   79 1    
    18    8   80 1    
    19    9   10 ar   
    20    9   14 ar   
    21   10   11 ar   
    22   10   81 1    
    23   11   12 ar   
    24   11   71 1    
    25   12   13 ar   
    26   12   82 1    
    27   13   14 ar   
    28   13   15 1    
    29   14   83 1    
    30   15   16 1    
    31   15   84 1    
    32   15   85 1    
    33   16   17 1    
    34   17   18 1    
    35   17   86 1    
    36   17   87 1    
    37   18   19 1    
    38   18   37 1    
    39   18   88 1    
    40   19   20 am   BACKBONE|DICT|INTERRES
    41   19   89 1    
    42   20   21 2    
    43   20   22 1    
    44   22   23 1    
    45   22   24 1    
    46   22   90 1    
    47   23   91 1    
    48   23   92 1    
    49   23   93 1    
    50   24   25 am   BACKBONE|DICT|INTERRES
    51   24   94 1    
    52   25   26 2    
    53   25   27 1    
    54   27   28 1    
    55   27   29 1    
    56   27   95 1    
    57   28   96 1    
    58   28   97 1    
    59   28   98 1    
    60   29   30 am   BACKBONE|DICT|INTERRES
    61   29   99 1    
    62   30   31 2    
    63   30   32 1    
    64   32   33 1    
    65   32   34 1    
    66   32  100 1    
    67   33  101 1    
    68   33  102 1    
    69   33  103 1    
    70   34   35 am   BACKBONE|DICT|INTERRES
    71   34  104 1    
    72   35   36 2    
    73   37   38 2    
    74   37   39 am   BACKBONE|DICT|INTERRES
    75   39   40 1    
    76   39  105 1    
    77   40   41 1    
    78   40   42 1    
    79   40  106 1    
    80   41  107 1    
    81   41  108 1    
    82   41  109 1    
    83   42   43 2    
    84   42   44 am   BACKBONE|DICT|INTERRES
    85   44   45 1    
    86   44  110 1    
    87   45   46 1    
    88   45   47 1    
    89   45  111 1    
    90   46  112 1    
    91   46  113 1    
    92   46  114 1    
    93   47   48 2    
    94   47   49 am   BACKBONE|DICT|INTERRES
    95   49   50 1    
    96   49  115 1    
    97   50   51 1    
    98   50   52 1    
    99   50  116 1    
   100   51  117 1    
   101   51  118 1    
   102   51  119 1    
   103   52   53 2    
   104   52   54 am   BACKBONE|DICT|INTERRES
   105   54   55 1    
   106   54  120 1    
   107   55   56 1    
   108   55   57 1    
   109   55  121 1    
   110   56  122 1    
   111   56  123 1    
   112   56  124 1    
   113   57   58 2    
   114   57   59 am   BACKBONE|DICT|INTERRES
   115   59   60 1    
   116   59  125 1    
   117   60   61 1    
   118   60   62 1    
   119   60  126 1    
   120   61  127 1    
   121   61  128 1    
   122   61  129 1    
   123   62   63 2    
   124   62   64 am   BACKBONE|DICT|INTERRES
   125   64   65 1    
   126   64  130 1    
   127   65   66 1    
   128   65   69 1    
   129   65  131 1    
   130   66   67 am   BACKBONE|DICT|INTERRES
   131   66   68 2    
   132   67  132 1    
   133   67  133 1    
   134   69   70 1    
   135   69  134 1    
   136   69  135 1    
   137   70   71 1    
   138   71  136 1    
   139   71  137 1    
@<TRIPOS>SUBSTRUCTURE
     1 UNK         1 GROUP             0       ****    0 ROOT    
