@<TRIPOS>MOLECULE
3R136
137   139    1
SMALL
USER_CHARGES


@<TRIPOS>ATOM
      1 CA         30.0594   23.6534   -5.8681 C.3       0 UNK        -0.1979 
      2 C          29.3932   24.1236   -4.5834 C.2       0 UNK         0.4864 
      3 O          28.1991   24.4265   -4.5893 O.2       0 UNK        -0.5359 
      4 N          30.1562   24.1942   -3.4848 N.am      1 UNK        -0.4318 
      5 CA         29.6702   24.5617   -2.1538 C.3       1 UNK         0.0824 
      6 C6         30.8475   24.9363   -1.2192 C.3       12 UNK        -0.0944 
      7 S7         30.3313   25.5561    0.4209 S.3       12 UNK        -0.2672 
      8 C8         30.6552   24.0979    1.4672 C.3       12 UNK         0.0333 
      9 C9         30.8106   24.5132    2.9194 C.ar      12 UNK        -0.0807 
     10 C10        32.0739   24.8449    3.4150 C.ar      12 UNK        -0.0894 
     11 C11        32.2321   25.3253    4.7174 C.ar      12 UNK        -0.0804 
     12 C12        31.0958   25.4617    5.5279 C.ar      12 UNK        -0.0824 
     13 C13        29.8297   25.0984    5.0581 C.ar      12 UNK        -0.0762 
     14 C14        29.6957   24.6073    3.7554 C.ar      12 UNK        -0.0782 
     15 C15        28.6142   25.2463    5.9672 C.3       12 UNK         0.0230 
     16 S16        27.2516   26.1916    5.2082 S.3       12 UNK        -0.2608 
     17 C17        28.0516   27.7780    4.7779 C.3       12 UNK        -0.0989 
     18 CA         28.2971   27.9098    3.2511 C.3       5 UNK         0.0716 
     19 N          27.0840   27.7117    2.4353 N.am      5 UNK        -0.4135 
     20 C          25.9525   28.4324    2.4351 C.2       4 UNK         0.5031 
     21 O          25.7878   29.4567    3.0987 O.2       4 UNK        -0.5229 
     22 CA         24.8298   27.9605    1.5001 C.3       4 UNK         0.0329 
     23 CB         25.0513   28.5110    0.0814 C.3       4 UNK        -0.2001 
     24 N          24.6926   26.5043    1.4401 N.am      4 UNK        -0.4303 
     25 C          24.2316   25.7248    2.4254 C.2       3 UNK         0.5044 
     26 O          23.8981   26.1539    3.5302 O.2       3 UNK        -0.5152 
     27 CA         24.0760   24.2160    2.1365 C.3       3 UNK         0.0319 
     28 CB         22.7039   23.9320    1.4944 C.3       3 UNK        -0.2001 
     29 N          25.1546   23.5713    1.3657 N.am      3 UNK        -0.4354 
     30 C          25.5593   23.8148    0.1113 C.2       2 UNK         0.4964 
     31 O          25.1147   24.7177   -0.6022 O.2       2 UNK        -0.5047 
     32 CA         26.6485   22.8997   -0.4529 C.3       2 UNK         0.0288 
     33 CB         26.0386   21.8182   -1.3649 C.3       2 UNK        -0.2113 
     34 N          27.5740   23.7459   -1.1953 N.am      2 UNK        -0.4145 
     35 C          28.8146   23.4201   -1.5684 C.2       1 UNK         0.5006 
     36 O          29.3082   22.2977   -1.4300 O.2       1 UNK        -0.5103 
     37 C          29.0901   29.1932    2.9146 C.2       5 UNK         0.5055 
     38 O          30.3224   29.1663    2.9353 O.2       5 UNK        -0.5220 
     39 N          28.3969   30.2816    2.5549 N.am      6 UNK        -0.4450 
     40 CA         28.9543   31.5501    2.0736 C.3       6 UNK         0.0367 
     41 CB         27.8118   32.5528    1.8530 C.3       6 UNK        -0.1929 
     42 C          29.7986   31.4073    0.7938 C.2       6 UNK         0.5070 
     43 O          30.7208   32.1962    0.5915 O.2       6 UNK        -0.5237 
     44 N          29.5240   30.3662   -0.0068 N.am      7 UNK        -0.4739 
     45 CA         30.3212   29.9480   -1.1661 C.3       7 UNK         0.0276 
     46 CB         29.6008   28.7904   -1.8773 C.3       7 UNK        -0.1927 
     47 C          31.7707   29.5499   -0.8177 C.2       7 UNK         0.5013 
     48 O          32.6419   29.6494   -1.6820 O.2       7 UNK        -0.5193 
     49 N          32.0047   29.1421    0.4367 N.am      8 UNK        -0.4253 
     50 CA         33.3195   28.8710    1.0177 C.3       8 UNK         0.0242 
     51 CB         33.3546   27.4079    1.4851 C.3       8 UNK        -0.2000 
     52 C          33.6161   29.8412    2.1768 C.2       8 UNK         0.4948 
     53 O          34.3933   29.4959    3.0689 O.2       8 UNK        -0.5275 
     54 N          32.9701   31.0204    2.1729 N.am      9 UNK        -0.4246 
     55 CA         33.0778   32.1058    3.1578 C.3       9 UNK         0.0261 
     56 CB         34.4405   32.8156    3.0118 C.3       9 UNK        -0.1959 
     57 C          32.7966   31.6689    4.6108 C.2       9 UNK         0.5033 
     58 O          33.4105   32.2063    5.5351 O.2       9 UNK        -0.5390 
     59 N          31.9166   30.6690    4.7886 N.am      10 UNK        -0.4215 
     60 CA         31.6008   29.9898    6.0532 C.3       10 UNK         0.0240 
     61 CB         30.7767   30.9121    6.9752 C.3       10 UNK        -0.1982 
     62 C          32.8425   29.3875    6.7469 C.2       10 UNK         0.4970 
     63 O          32.9060   29.3566    7.9769 O.2       10 UNK        -0.4916 
     64 N          33.8044   28.9365    5.9307 N.am      11 UNK        -0.4279 
     65 CA         35.1220   28.4027    6.3069 C.3       11 UNK         0.1003 
     66 C          36.1380   29.4925    6.7667 C.2       11 UNK         0.5709 
     67 N          35.8481   30.7834    6.6403 N.am      11 UNK        -0.7358 
     68 O          37.2310   29.1631    7.2225 O.2       11 UNK        -0.4999 
     69 C69        35.0756   27.1868    7.2852 C.3       12 UNK        -0.0954 
     70 S70        33.8390   25.8664    6.9884 S.3       12 UNK        -0.2268 
     71 C71        33.6331   25.7409    5.1737 C.3       12 UNK         0.0203 
     72 H72        29.9772   24.4218   -6.6364 H         1 UNK         0.0888 
     73 H73        31.1165   23.4318   -5.7223 H         1 UNK         0.0888 
     74 H74        29.5713   22.7507   -6.2348 H         1 UNK         0.0888 
     75 H75        31.1223   23.9039   -3.5343 H         1 UNK         0.3017 
     76 H76        29.0428   25.4490   -2.2664 H         1 UNK         0.0873 
     77 H77        31.4374   25.7291   -1.6824 H         1 UNK         0.0745 
     78 H78        31.5313   24.0936   -1.1029 H         1 UNK         0.0745 
     79 H79        31.5619   23.5897    1.1359 H         1 UNK         0.0705 
     80 H80        29.8405   23.3804    1.3590 H         1 UNK         0.0705 
     81 H81        32.9362   24.7664    2.7668 H         1 UNK         0.1334 
     82 H82        31.1850   25.8566    6.5296 H         1 UNK         0.1417 
     83 H83        28.7168   24.3432    3.3793 H         1 UNK         0.1562 
     84 H84        28.8866   25.7286    6.9073 H         1 UNK         0.0748 
     85 H85        28.2483   24.2524    6.2278 H         1 UNK         0.0748 
     86 H86        28.9897   27.8639    5.3284 H         1 UNK         0.0940 
     87 H87        27.4162   28.5892    5.1376 H         1 UNK         0.0940 
     88 H88        28.9600   27.0963    2.9576 H         1 UNK         0.0703 
     89 H89        27.1079   26.9023    1.8331 H         1 UNK         0.3081 
     90 H90        23.8915   28.3696    1.8812 H         1 UNK         0.0719 
     91 H91        25.9587   28.1115   -0.3735 H         1 UNK         0.0809 
     92 H92        24.2146   28.2646   -0.5727 H         1 UNK         0.0809 
     93 H93        25.1417   29.5983    0.0926 H         1 UNK         0.0809 
     94 H94        24.8931   26.0469    0.5521 H         1 UNK         0.2990 
     95 H95        24.0851   23.7214    3.1093 H         1 UNK         0.0690 
     96 H96        22.5298   22.8612    1.3884 H         1 UNK         0.0788 
     97 H97        22.6147   24.3853    0.5065 H         1 UNK         0.0788 
     98 H98        21.8954   24.3317    2.1081 H         1 UNK         0.0788 
     99 H99        25.6198   22.8222    1.8603 H         1 UNK         0.2993 
    100 H100       27.1875   22.4252    0.3702 H         1 UNK         0.0949 
    101 H101       26.8016   21.1419   -1.7503 H         1 UNK         0.0767 
    102 H102       25.3146   21.2107   -0.8202 H         1 UNK         0.0767 
    103 H103       25.5212   22.2587   -2.2183 H         1 UNK         0.0767 
    104 H104       27.2262   24.6812   -1.3662 H         1 UNK         0.3013 
    105 H105       27.3833   30.2199    2.6322 H         1 UNK         0.3121 
    106 H106       29.6093   31.9396    2.8556 H         1 UNK         0.0774 
    107 H107       28.1970   33.5168    1.5173 H         1 UNK         0.0815 
    108 H108       27.1065   32.2018    1.0985 H         1 UNK         0.0815 
    109 H109       27.2565   32.7306    2.7742 H         1 UNK         0.0815 
    110 H110       28.7420   29.7779    0.2392 H         1 UNK         0.2987 
    111 H111       30.3770   30.7952   -1.8533 H         1 UNK         0.0949 
    112 H112       30.1676   28.4499   -2.7452 H         1 UNK         0.0806 
    113 H113       29.4690   27.9323   -1.2183 H         1 UNK         0.0806 
    114 H114       28.6166   29.0941   -2.2345 H         1 UNK         0.0806 
    115 H115       31.2285   29.0971    1.0890 H         1 UNK         0.3010 
    116 H116       34.1076   29.0162    0.2764 H         1 UNK         0.0829 
    117 H117       33.1620   26.7227    0.6599 H         1 UNK         0.0813 
    118 H118       34.3253   27.1431    1.9061 H         1 UNK         0.0813 
    119 H119       32.6000   27.2336    2.2518 H         1 UNK         0.0813 
    120 H120       32.3337   31.2111    1.4056 H         1 UNK         0.3038 
    121 H121       32.2993   32.8269    2.9048 H         1 UNK         0.0769 
    122 H122       34.4910   33.7051    3.6411 H         1 UNK         0.0811 
    123 H123       34.6119   33.1384    1.9850 H         1 UNK         0.0811 
    124 H124       35.2660   32.1642    3.3016 H         1 UNK         0.0811 
    125 H125       31.4799   30.2571    3.9660 H         1 UNK         0.3204 
    126 H126       30.9720   29.1393    5.7888 H         1 UNK         0.0748 
    127 H127       30.4301   30.3753    7.8591 H         1 UNK         0.0771 
    128 H128       31.3622   31.7649    7.3203 H         1 UNK         0.0771 
    129 H129       29.8936   31.2955    6.4639 H         1 UNK         0.0771 
    130 H130       33.6934   29.0813    4.9325 H         1 UNK         0.2980 
    131 H131       35.5475   28.0396    5.3715 H         1 UNK         0.0545 
    132 H132       36.5268   31.4668    6.9348 H         1 UNK         0.3459 
    133 H133       34.9575   31.0909    6.2654 H         1 UNK         0.3459 
    134 H134       36.0535   26.7027    7.3061 H         1 UNK         0.0616 
    135 H135       34.9077   27.5431    8.3029 H         1 UNK         0.0616 
    136 H136       34.3643   25.0181    4.8089 H         1 UNK         0.0634 
    137 H137       33.8648   26.6780    4.6751 H         1 UNK         0.0634 
@<TRIPOS>BOND
     1    1    2 1    
     2    1   72 1    
     3    1   73 1    
     4    1   74 1    
     5    2    3 2    
     6    2    4 am   BACKBONE|DICT|INTERRES
     7    4    5 1    
     8    4   75 1    
     9    5    6 1    
    10    5   35 1    
    11    5   76 1    
    12    6    7 1    
    13    6   77 1    
    14    6   78 1    
    15    7    8 1    
    16    8    9 1    
    17    8   79 1    
    18    8   80 1    
    19    9   10 ar   
    20    9   14 ar   
    21   10   11 ar   
    22   10   81 1    
    23   11   12 ar   
    24   11   71 1    
    25   12   13 ar   
    26   12   82 1    
    27   13   14 ar   
    28   13   15 1    
    29   14   83 1    
    30   15   16 1    
    31   15   84 1    
    32   15   85 1    
    33   16   17 1    
    34   17   18 1    
    35   17   86 1    
    36   17   87 1    
    37   18   19 1    
    38   18   37 1    
    39   18   88 1    
    40   19   20 am   BACKBONE|DICT|INTERRES
    41   19   89 1    
    42   20   21 2    
    43   20   22 1    
    44   22   23 1    
    45   22   24 1    
    46   22   90 1    
    47   23   91 1    
    48   23   92 1    
    49   23   93 1    
    50   24   25 am   BACKBONE|DICT|INTERRES
    51   24   94 1    
    52   25   26 2    
    53   25   27 1    
    54   27   28 1    
    55   27   29 1    
    56   27   95 1    
    57   28   96 1    
    58   28   97 1    
    59   28   98 1    
    60   29   30 am   BACKBONE|DICT|INTERRES
    61   29   99 1    
    62   30   31 2    
    63   30   32 1    
    64   32   33 1    
    65   32   34 1    
    66   32  100 1    
    67   33  101 1    
    68   33  102 1    
    69   33  103 1    
    70   34   35 am   BACKBONE|DICT|INTERRES
    71   34  104 1    
    72   35   36 2    
    73   37   38 2    
    74   37   39 am   BACKBONE|DICT|INTERRES
    75   39   40 1    
    76   39  105 1    
    77   40   41 1    
    78   40   42 1    
    79   40  106 1    
    80   41  107 1    
    81   41  108 1    
    82   41  109 1    
    83   42   43 2    
    84   42   44 am   BACKBONE|DICT|INTERRES
    85   44   45 1    
    86   44  110 1    
    87   45   46 1    
    88   45   47 1    
    89   45  111 1    
    90   46  112 1    
    91   46  113 1    
    92   46  114 1    
    93   47   48 2    
    94   47   49 am   BACKBONE|DICT|INTERRES
    95   49   50 1    
    96   49  115 1    
    97   50   51 1    
    98   50   52 1    
    99   50  116 1    
   100   51  117 1    
   101   51  118 1    
   102   51  119 1    
   103   52   53 2    
   104   52   54 am   BACKBONE|DICT|INTERRES
   105   54   55 1    
   106   54  120 1    
   107   55   56 1    
   108   55   57 1    
   109   55  121 1    
   110   56  122 1    
   111   56  123 1    
   112   56  124 1    
   113   57   58 2    
   114   57   59 am   BACKBONE|DICT|INTERRES
   115   59   60 1    
   116   59  125 1    
   117   60   61 1    
   118   60   62 1    
   119   60  126 1    
   120   61  127 1    
   121   61  128 1    
   122   61  129 1    
   123   62   63 2    
   124   62   64 am   BACKBONE|DICT|INTERRES
   125   64   65 1    
   126   64  130 1    
   127   65   66 1    
   128   65   69 1    
   129   65  131 1    
   130   66   67 am   BACKBONE|DICT|INTERRES
   131   66   68 2    
   132   67  132 1    
   133   67  133 1    
   134   69   70 1    
   135   69  134 1    
   136   69  135 1    
   137   70   71 1    
   138   71  136 1    
   139   71  137 1    
@<TRIPOS>SUBSTRUCTURE
     1 UNK         1 GROUP             0       ****    0 ROOT    
