@<TRIPOS>MOLECULE
3R136
137   139    1
SMALL
USER_CHARGES


@<TRIPOS>ATOM
      1 CA         29.5369   25.7762   -2.7791 C.3       0 UNK        -0.1979 
      2 C          29.2335   24.8633   -1.6021 C.2       0 UNK         0.4864 
      3 O          28.2458   25.0815   -0.8986 O.2       0 UNK        -0.5359 
      4 N          30.0651   23.8379   -1.3789 N.am      1 UNK        -0.4318 
      5 CA         29.9122   22.8638   -0.2939 C.3       1 UNK         0.0824 
      6 C6         31.0951   21.8690   -0.2229 C.3       12 UNK        -0.0944 
      7 S7         32.6911   22.6972    0.0853 S.3       12 UNK        -0.2672 
      8 C8         32.9350   22.3872    1.8632 C.3       12 UNK         0.0333 
      9 C9         32.1109   23.3352    2.7230 C.ar      12 UNK        -0.0807 
     10 C10        32.6445   24.5687    3.1081 C.ar      12 UNK        -0.0894 
     11 C11        31.9134   25.4334    3.9272 C.ar      12 UNK        -0.0804 
     12 C12        30.6330   25.0636    4.3490 C.ar      12 UNK        -0.0824 
     13 C13        30.0761   23.8471    3.9469 C.ar      12 UNK        -0.0762 
     14 C14        30.8278   22.9772    3.1500 C.ar      12 UNK        -0.0782 
     15 C15        28.6677   23.4686    4.3784 C.3       12 UNK         0.0230 
     16 S16        27.4118   24.2244    3.2952 S.3       12 UNK        -0.2608 
     17 C17        27.1299   25.8509    4.0775 C.3       12 UNK        -0.0989 
     18 CA         27.4984   27.0427    3.1582 C.3       5 UNK         0.0716 
     19 N          26.7283   27.0295    1.9103 N.am      5 UNK        -0.4135 
     20 C          26.9838   27.7991    0.8448 C.2       4 UNK         0.5031 
     21 O          27.9852   28.5092    0.7347 O.2       4 UNK        -0.5229 
     22 CA         25.9527   27.7408   -0.2909 C.3       4 UNK         0.0329 
     23 CB         26.3034   28.6632   -1.4756 C.3       4 UNK        -0.2001 
     24 N          25.8399   26.3642   -0.7588 N.am      4 UNK        -0.4303 
     25 C          24.7271   25.7811   -1.2180 C.2       3 UNK         0.5044 
     26 O          23.6319   26.3420   -1.2710 O.2       3 UNK        -0.5152 
     27 CA         24.8471   24.3254   -1.6921 C.3       3 UNK         0.0319 
     28 CB         25.4062   24.2646   -3.1236 C.3       3 UNK        -0.2001 
     29 N          25.7031   23.5386   -0.8000 N.am      3 UNK        -0.4354 
     30 C          25.3499   22.3839   -0.2163 C.2       2 UNK         0.4964 
     31 O          24.2544   21.8458   -0.3874 O.2       2 UNK        -0.5047 
     32 CA         26.3632   21.7199    0.7418 C.3       2 UNK         0.0288 
     33 CB         26.3369   20.1777    0.6628 C.3       2 UNK        -0.2113 
     34 N          27.7333   22.2376    0.6272 N.am      2 UNK        -0.4145 
     35 C          28.5726   22.1091   -0.4112 C.2       1 UNK         0.5006 
     36 O          28.3281   21.4650   -1.4339 O.2       1 UNK        -0.5103 
     37 C          27.2653   28.3760    3.9015 C.2       5 UNK         0.5055 
     38 O          26.1393   28.8819    3.9065 O.2       5 UNK        -0.5220 
     39 N          28.3148   28.9034    4.5365 N.am      6 UNK        -0.4450 
     40 CA         28.3138   30.1549    5.2918 C.3       6 UNK         0.0367 
     41 CB         28.4004   31.3508    4.3159 C.3       6 UNK        -0.1929 
     42 C          29.4695   30.1040    6.3058 C.2       6 UNK         0.5070 
     43 O          29.8216   29.0165    6.7698 O.2       6 UNK        -0.5237 
     44 N          30.0655   31.2635    6.6142 N.am      7 UNK        -0.4739 
     45 CA         31.3841   31.3596    7.2469 C.3       7 UNK         0.0276 
     46 CB         31.6129   32.8046    7.7177 C.3       7 UNK        -0.1927 
     47 C          32.4678   30.9481    6.2364 C.2       7 UNK         0.5013 
     48 O          32.2874   31.1942    5.0430 O.2       7 UNK        -0.5193 
     49 N          33.5713   30.3600    6.7187 N.am      8 UNK        -0.4253 
     50 CA         34.6154   29.6975    5.9191 C.3       8 UNK         0.0242 
     51 CB         35.7573   29.2507    6.8462 C.3       8 UNK        -0.2000 
     52 C          35.1780   30.4913    4.7234 C.2       8 UNK         0.4948 
     53 O          35.4947   29.8882    3.6978 O.2       8 UNK        -0.5275 
     54 N          35.2753   31.8192    4.8643 N.am      9 UNK        -0.4246 
     55 CA         35.7242   32.7336    3.8112 C.3       9 UNK         0.0261 
     56 CB         36.2466   34.0223    4.4688 C.3       9 UNK        -0.1959 
     57 C          34.6391   33.0702    2.7676 C.2       9 UNK         0.5033 
     58 O          34.9850   33.5982    1.7093 O.2       9 UNK        -0.5390 
     59 N          33.3633   32.8047    3.0786 N.am      10 UNK        -0.4215 
     60 CA         32.1981   33.1922    2.2802 C.3       10 UNK         0.0240 
     61 CB         31.2163   33.9496    3.1932 C.3       10 UNK        -0.1982 
     62 C          31.4931   32.0016    1.6066 C.2       10 UNK         0.4970 
     63 O          30.6151   32.2447    0.7775 O.2       10 UNK        -0.4916 
     64 N          31.8531   30.7597    1.9650 N.am      11 UNK        -0.4279 
     65 CA         31.2815   29.5177    1.4141 C.3       11 UNK         0.1003 
     66 C          31.4020   29.4165   -0.1309 C.2       11 UNK         0.5709 
     67 N          30.3340   29.0226   -0.8090 N.am      11 UNK        -0.7358 
     68 O          32.4619   29.6556   -0.7074 O.2       11 UNK        -0.4999 
     69 C69        31.8905   28.2553    2.0770 C.3       12 UNK        -0.0954 
     70 S70        31.5254   28.1820    3.8546 S.3       12 UNK        -0.2268 
     71 C71        32.5165   26.7536    4.3822 C.3       12 UNK         0.0203 
     72 H72        29.4989   26.8173   -2.4625 H         1 UNK         0.0888 
     73 H73        30.5245   25.5846   -3.1980 H         1 UNK         0.0888 
     74 H74        28.7967   25.6328   -3.5654 H         1 UNK         0.0888 
     75 H75        30.8586   23.6923   -1.9860 H         1 UNK         0.3017 
     76 H76        29.8971   23.4424    0.6312 H         1 UNK         0.0873 
     77 H77        31.1802   21.3133   -1.1589 H         1 UNK         0.0745 
     78 H78        30.9250   21.1194    0.5520 H         1 UNK         0.0745 
     79 H79        33.9941   22.5134    2.0936 H         1 UNK         0.0705 
     80 H80        32.7012   21.3483    2.1004 H         1 UNK         0.0705 
     81 H81        33.6366   24.8480    2.7799 H         1 UNK         0.1334 
     82 H82        30.0695   25.7314    4.9851 H         1 UNK         0.1417 
     83 H83        30.4119   22.0234    2.8558 H         1 UNK         0.1562 
     84 H84        28.4965   23.7510    5.4182 H         1 UNK         0.0748 
     85 H85        28.5465   22.3849    4.3421 H         1 UNK         0.0748 
     86 H86        27.6882   25.9062    5.0133 H         1 UNK         0.0940 
     87 H87        26.0769   25.9025    4.3624 H         1 UNK         0.0940 
     88 H88        28.5574   26.9686    2.8984 H         1 UNK         0.0703 
     89 H89        25.8883   26.4712    1.9135 H         1 UNK         0.3081 
     90 H90        25.0005   28.0677    0.1322 H         1 UNK         0.0719 
     91 H91        26.4063   29.6987   -1.1486 H         1 UNK         0.0809 
     92 H92        27.2435   28.3718   -1.9455 H         1 UNK         0.0809 
     93 H93        25.5262   28.6404   -2.2394 H         1 UNK         0.0809 
     94 H94        26.7198   25.8445   -0.7663 H         1 UNK         0.2990 
     95 H95        23.8355   23.9147   -1.7081 H         1 UNK         0.0690 
     96 H96        26.4190   24.6642   -3.1801 H         1 UNK         0.0788 
     97 H97        24.7866   24.8431   -3.8103 H         1 UNK         0.0788 
     98 H98        25.4312   23.2394   -3.4932 H         1 UNK         0.0788 
     99 H99        26.6275   23.9152   -0.6177 H         1 UNK         0.2993 
    100 H100       26.0286   21.9924    1.7437 H         1 UNK         0.0949 
    101 H101       26.5662   19.8172   -0.3403 H         1 UNK         0.0767 
    102 H102       27.0538   19.7326    1.3528 H         1 UNK         0.0767 
    103 H103       25.3527   19.7891    0.9272 H         1 UNK         0.0767 
    104 H104       28.0172   22.8326    1.3960 H         1 UNK         0.3013 
    105 H105       29.2029   28.4147    4.5454 H         1 UNK         0.3121 
    106 H106       27.3872   30.2253    5.8652 H         1 UNK         0.0774 
    107 H107       28.3031   32.3045    4.8351 H         1 UNK         0.0815 
    108 H108       29.3489   31.3550    3.7771 H         1 UNK         0.0815 
    109 H109       27.6029   31.3181    3.5735 H         1 UNK         0.0815 
    110 H110       29.7278   32.1018    6.1655 H         1 UNK         0.2987 
    111 H111       31.4175   30.6881    8.1078 H         1 UNK         0.0949 
    112 H112       30.8458   33.1167    8.4267 H         1 UNK         0.0806 
    113 H113       32.5761   32.9051    8.2198 H         1 UNK         0.0806 
    114 H114       31.6053   33.5082    6.8838 H         1 UNK         0.0806 
    115 H115       33.6424   30.2381    7.7189 H         1 UNK         0.3010 
    116 H116       34.1569   28.8008    5.5017 H         1 UNK         0.0829 
    117 H117       35.4027   28.5589    7.6105 H         1 UNK         0.0813 
    118 H118       36.5382   28.7346    6.2854 H         1 UNK         0.0813 
    119 H119       36.2237   30.0988    7.3490 H         1 UNK         0.0813 
    120 H120       34.9857   32.2315    5.7395 H         1 UNK         0.3038 
    121 H121       36.5543   32.2678    3.2754 H         1 UNK         0.0769 
    122 H122       36.6283   34.7170    3.7191 H         1 UNK         0.0811 
    123 H123       37.0645   33.8132    5.1585 H         1 UNK         0.0811 
    124 H124       35.4623   34.5402    5.0224 H         1 UNK         0.0811 
    125 H125       33.1509   32.3012    3.9398 H         1 UNK         0.3204 
    126 H126       32.4993   33.8706    1.4794 H         1 UNK         0.0748 
    127 H127       30.3300   34.2678    2.6426 H         1 UNK         0.0771 
    128 H128       30.8798   33.3310    4.0255 H         1 UNK         0.0771 
    129 H129       31.6765   34.8459    3.6092 H         1 UNK         0.0771 
    130 H130       32.5437   30.6431    2.6920 H         1 UNK         0.2980 
    131 H131       30.2194   29.5437    1.6637 H         1 UNK         0.0545 
    132 H132       30.3828   28.9527   -1.8115 H         1 UNK         0.3459 
    133 H133       29.4620   28.8309   -0.3184 H         1 UNK         0.3459 
    134 H134       31.4881   27.3477    1.6220 H         1 UNK         0.0616 
    135 H135       32.9722   28.2271    1.9329 H         1 UNK         0.0616 
    136 H136       33.5380   26.8701    4.0167 H         1 UNK         0.0634 
    137 H137       32.5750   26.7554    5.4714 H         1 UNK         0.0634 
@<TRIPOS>BOND
     1    1    2 1    
     2    1   72 1    
     3    1   73 1    
     4    1   74 1    
     5    2    3 2    
     6    2    4 am   BACKBONE|DICT|INTERRES
     7    4    5 1    
     8    4   75 1    
     9    5    6 1    
    10    5   35 1    
    11    5   76 1    
    12    6    7 1    
    13    6   77 1    
    14    6   78 1    
    15    7    8 1    
    16    8    9 1    
    17    8   79 1    
    18    8   80 1    
    19    9   10 ar   
    20    9   14 ar   
    21   10   11 ar   
    22   10   81 1    
    23   11   12 ar   
    24   11   71 1    
    25   12   13 ar   
    26   12   82 1    
    27   13   14 ar   
    28   13   15 1    
    29   14   83 1    
    30   15   16 1    
    31   15   84 1    
    32   15   85 1    
    33   16   17 1    
    34   17   18 1    
    35   17   86 1    
    36   17   87 1    
    37   18   19 1    
    38   18   37 1    
    39   18   88 1    
    40   19   20 am   BACKBONE|DICT|INTERRES
    41   19   89 1    
    42   20   21 2    
    43   20   22 1    
    44   22   23 1    
    45   22   24 1    
    46   22   90 1    
    47   23   91 1    
    48   23   92 1    
    49   23   93 1    
    50   24   25 am   BACKBONE|DICT|INTERRES
    51   24   94 1    
    52   25   26 2    
    53   25   27 1    
    54   27   28 1    
    55   27   29 1    
    56   27   95 1    
    57   28   96 1    
    58   28   97 1    
    59   28   98 1    
    60   29   30 am   BACKBONE|DICT|INTERRES
    61   29   99 1    
    62   30   31 2    
    63   30   32 1    
    64   32   33 1    
    65   32   34 1    
    66   32  100 1    
    67   33  101 1    
    68   33  102 1    
    69   33  103 1    
    70   34   35 am   BACKBONE|DICT|INTERRES
    71   34  104 1    
    72   35   36 2    
    73   37   38 2    
    74   37   39 am   BACKBONE|DICT|INTERRES
    75   39   40 1    
    76   39  105 1    
    77   40   41 1    
    78   40   42 1    
    79   40  106 1    
    80   41  107 1    
    81   41  108 1    
    82   41  109 1    
    83   42   43 2    
    84   42   44 am   BACKBONE|DICT|INTERRES
    85   44   45 1    
    86   44  110 1    
    87   45   46 1    
    88   45   47 1    
    89   45  111 1    
    90   46  112 1    
    91   46  113 1    
    92   46  114 1    
    93   47   48 2    
    94   47   49 am   BACKBONE|DICT|INTERRES
    95   49   50 1    
    96   49  115 1    
    97   50   51 1    
    98   50   52 1    
    99   50  116 1    
   100   51  117 1    
   101   51  118 1    
   102   51  119 1    
   103   52   53 2    
   104   52   54 am   BACKBONE|DICT|INTERRES
   105   54   55 1    
   106   54  120 1    
   107   55   56 1    
   108   55   57 1    
   109   55  121 1    
   110   56  122 1    
   111   56  123 1    
   112   56  124 1    
   113   57   58 2    
   114   57   59 am   BACKBONE|DICT|INTERRES
   115   59   60 1    
   116   59  125 1    
   117   60   61 1    
   118   60   62 1    
   119   60  126 1    
   120   61  127 1    
   121   61  128 1    
   122   61  129 1    
   123   62   63 2    
   124   62   64 am   BACKBONE|DICT|INTERRES
   125   64   65 1    
   126   64  130 1    
   127   65   66 1    
   128   65   69 1    
   129   65  131 1    
   130   66   67 am   BACKBONE|DICT|INTERRES
   131   66   68 2    
   132   67  132 1    
   133   67  133 1    
   134   69   70 1    
   135   69  134 1    
   136   69  135 1    
   137   70   71 1    
   138   71  136 1    
   139   71  137 1    
@<TRIPOS>SUBSTRUCTURE
     1 UNK         1 GROUP             0       ****    0 ROOT    
