@<TRIPOS>MOLECULE
3R136
137   139    1
SMALL
USER_CHARGES


@<TRIPOS>ATOM
      1 CA         30.4212   22.5703   -3.3661 C.3       0 UNK        -0.1979 
      2 C          30.4005   24.0154   -2.8915 C.2       0 UNK         0.4864 
      3 O          30.4250   24.9331   -3.7141 O.2       0 UNK        -0.5359 
      4 N          30.3420   24.2308   -1.5707 N.am      1 UNK        -0.4318 
      5 CA         30.3344   25.5470   -0.9193 C.3       1 UNK         0.0824 
      6 C6         30.8636   25.4657    0.5331 C.3       12 UNK        -0.0944 
      7 S7         32.6262   24.9932    0.5749 S.3       12 UNK        -0.2672 
      8 C8         32.5738   23.3339    1.3272 C.3       12 UNK         0.0333 
      9 C9         32.0947   23.3605    2.7734 C.ar      12 UNK        -0.0807 
     10 C10        32.7629   24.1378    3.7249 C.ar      12 UNK        -0.0894 
     11 C11        32.3262   24.1726    5.0523 C.ar      12 UNK        -0.0804 
     12 C12        31.2232   23.4018    5.4304 C.ar      12 UNK        -0.0824 
     13 C13        30.5404   22.6259    4.4871 C.ar      12 UNK        -0.0762 
     14 C14        30.9867   22.6016    3.1625 C.ar      12 UNK        -0.0782 
     15 C15        29.3021   21.8367    4.8931 C.3       12 UNK         0.0230 
     16 S16        27.7680   22.5765    4.2354 S.3       12 UNK        -0.2608 
     17 C17        27.8929   24.2882    4.8521 C.3       12 UNK        -0.0989 
     18 CA         28.2943   25.2635    3.7084 C.3       5 UNK         0.0716 
     19 N          27.2091   25.6130    2.7830 N.am      5 UNK        -0.4135 
     20 C          26.0424   26.2047    3.0860 C.2       4 UNK         0.5031 
     21 O          25.6789   26.4602    4.2356 O.2       4 UNK        -0.5229 
     22 CA         25.1351   26.6258    1.9230 C.3       4 UNK         0.0329 
     23 CB         25.3258   28.1261    1.6398 C.3       4 UNK        -0.2001 
     24 N          25.4229   25.8822    0.6978 N.am      4 UNK        -0.4303 
     25 C          24.6188   24.9754    0.1246 C.2       3 UNK         0.5044 
     26 O          23.5532   24.6013    0.6173 O.2       3 UNK        -0.5152 
     27 CA         25.0808   24.3843   -1.2291 C.3       3 UNK         0.0319 
     28 CB         23.9012   24.0791   -2.1766 C.3       3 UNK        -0.2001 
     29 N          26.1043   25.1983   -1.9020 N.am      3 UNK        -0.4354 
     30 C          25.9954   26.4741   -2.3093 C.2       2 UNK         0.4964 
     31 O          24.9280   27.0864   -2.3585 O.2       2 UNK        -0.5047 
     32 CA         27.3025   27.2128   -2.6695 C.3       2 UNK         0.0288 
     33 CB         27.2951   28.6630   -2.1400 C.3       2 UNK        -0.2113 
     34 N          28.5402   26.5368   -2.2474 N.am      2 UNK        -0.4145 
     35 C          28.9348   26.1911   -1.0111 C.2       1 UNK         0.5006 
     36 O          28.2310   26.3090   -0.0026 O.2       1 UNK        -0.5103 
     37 C          28.9896   26.5336    4.2246 C.2       5 UNK         0.5055 
     38 O          30.1061   26.8300    3.7990 O.2       5 UNK        -0.5220 
     39 N          28.2963   27.3021    5.0733 N.am      6 UNK        -0.4450 
     40 CA         28.7408   28.5868    5.6161 C.3       6 UNK         0.0367 
     41 CB         27.9765   28.8706    6.9215 C.3       6 UNK        -0.1929 
     42 C          28.6160   29.7303    4.5867 C.2       6 UNK         0.5070 
     43 O          28.0226   30.7701    4.8791 O.2       6 UNK        -0.5237 
     44 N          29.1736   29.5125    3.3908 N.am      7 UNK        -0.4739 
     45 CA         29.3116   30.5020    2.3256 C.3       7 UNK         0.0276 
     46 CB         29.5983   29.7642    1.0066 C.3       7 UNK        -0.1927 
     47 C          30.4500   31.4792    2.6552 C.2       7 UNK         0.5013 
     48 O          31.4066   31.0918    3.3311 O.2       7 UNK        -0.5193 
     49 N          30.3639   32.7095    2.1315 N.am      8 UNK        -0.4253 
     50 CA         31.3419   33.7852    2.3545 C.3       8 UNK         0.0242 
     51 CB         30.8284   35.0809    1.7054 C.3       8 UNK        -0.2000 
     52 C          32.7681   33.4669    1.8637 C.2       8 UNK         0.4948 
     53 O          33.7305   33.9937    2.4224 O.2       8 UNK        -0.5275 
     54 N          32.8776   32.6002    0.8484 N.am      9 UNK        -0.4246 
     55 CA         34.1395   32.0709    0.3258 C.3       9 UNK         0.0261 
     56 CB         33.9405   31.7122   -1.1575 C.3       9 UNK        -0.1959 
     57 C          34.6627   30.8497    1.1116 C.2       9 UNK         0.5033 
     58 O          35.7556   30.3727    0.8001 O.2       9 UNK        -0.5390 
     59 N          33.8848   30.3464    2.0785 N.am      10 UNK        -0.4215 
     60 CA         34.1690   29.1592    2.8788 C.3       10 UNK         0.0240 
     61 CB         33.1502   28.0628    2.5041 C.3       10 UNK        -0.1982 
     62 C          34.1567   29.5430    4.3689 C.2       10 UNK         0.4970 
     63 O          34.7424   30.5636    4.7355 O.2       10 UNK        -0.4916 
     64 N          33.5153   28.7174    5.2028 N.am      11 UNK        -0.4279 
     65 CA         33.3753   28.8953    6.6560 C.3       11 UNK         0.1003 
     66 C          32.2942   29.9266    7.1013 C.2       11 UNK         0.5709 
     67 N          31.6153   30.6326    6.2058 N.am      11 UNK        -0.7358 
     68 O          32.0799   30.1119    8.2970 O.2       11 UNK        -0.4999 
     69 C69        33.2520   27.5266    7.3865 C.3       12 UNK        -0.0954 
     70 S70        31.9988   26.4088    6.6655 S.3       12 UNK        -0.2268 
     71 C71        33.0480   25.0412    6.0731 C.3       12 UNK         0.0203 
     72 H72        30.3948   21.8670   -2.5340 H         1 UNK         0.0888 
     73 H73        29.5611   22.3729   -4.0053 H         1 UNK         0.0888 
     74 H74        31.3257   22.3791   -3.9427 H         1 UNK         0.0888 
     75 H75        30.3057   23.4393   -0.9456 H         1 UNK         0.3017 
     76 H76        31.0096   26.2073   -1.4690 H         1 UNK         0.0873 
     77 H77        30.7749   26.4326    1.0329 H         1 UNK         0.0745 
     78 H78        30.2712   24.7648    1.1213 H         1 UNK         0.0745 
     79 H79        33.5764   22.9056    1.2986 H         1 UNK         0.0705 
     80 H80        31.9454   22.6854    0.7153 H         1 UNK         0.0705 
     81 H81        33.6190   24.7249    3.4230 H         1 UNK         0.1334 
     82 H82        30.8830   23.4303    6.4566 H         1 UNK         0.1417 
     83 H83        30.4565   22.0028    2.4343 H         1 UNK         0.1562 
     84 H84        29.2264   21.7677    5.9795 H         1 UNK         0.0748 
     85 H85        29.3878   20.8124    4.5278 H         1 UNK         0.0748 
     86 H86        28.6150   24.3179    5.6693 H         1 UNK         0.0940 
     87 H87        26.9425   24.5610    5.3098 H         1 UNK         0.0940 
     88 H88        29.0447   24.7617    3.0978 H         1 UNK         0.0703 
     89 H89        27.4484   25.5310    1.8025 H         1 UNK         0.3081 
     90 H90        24.1014   26.4628    2.2348 H         1 UNK         0.0719 
     91 H91        25.0855   28.7246    2.5197 H         1 UNK         0.0809 
     92 H92        26.3548   28.3569    1.3603 H         1 UNK         0.0809 
     93 H93        24.6763   28.4620    0.8310 H         1 UNK         0.0809 
     94 H94        26.2972   26.1088    0.2335 H         1 UNK         0.2990 
     95 H95        25.5624   23.4353   -0.9890 H         1 UNK         0.0690 
     96 H96        23.3137   24.9712   -2.3949 H         1 UNK         0.0788 
     97 H97        23.2240   23.3470   -1.7349 H         1 UNK         0.0788 
     98 H98        24.2490   23.6658   -3.1232 H         1 UNK         0.0788 
     99 H99        27.0303   24.7956   -1.9178 H         1 UNK         0.2993 
    100 H100       27.3333   27.2537   -3.7594 H         1 UNK         0.0949 
    101 H101       27.1811   28.6953   -1.0563 H         1 UNK         0.0767 
    102 H102       28.2171   29.1852   -2.3960 H         1 UNK         0.0767 
    103 H103       26.4722   29.2359   -2.5694 H         1 UNK         0.0767 
    104 H104       29.1748   26.2817   -3.0009 H         1 UNK         0.3013 
    105 H105       27.3297   27.0427    5.2440 H         1 UNK         0.3121 
    106 H106       29.7996   28.5011    5.8667 H         1 UNK         0.0774 
    107 H107       28.3258   29.7945    7.3845 H         1 UNK         0.0815 
    108 H108       26.9049   28.9748    6.7470 H         1 UNK         0.0815 
    109 H109       28.1245   28.0719    7.6484 H         1 UNK         0.0815 
    110 H110       29.6696   28.6338    3.2710 H         1 UNK         0.2987 
    111 H111       28.3745   31.0556    2.2344 H         1 UNK         0.0949 
    112 H112       29.6354   30.4582    0.1662 H         1 UNK         0.0806 
    113 H113       30.5514   29.2345    1.0365 H         1 UNK         0.0806 
    114 H114       28.8212   29.0322    0.7866 H         1 UNK         0.0806 
    115 H115       29.5549   32.9457    1.5743 H         1 UNK         0.3010 
    116 H116       31.4057   33.9461    3.4329 H         1 UNK         0.0829 
    117 H117       29.8659   35.3799    2.1210 H         1 UNK         0.0813 
    118 H118       31.5221   35.9053    1.8775 H         1 UNK         0.0813 
    119 H119       30.7116   34.9740    0.6262 H         1 UNK         0.0813 
    120 H120       32.0291   32.2309    0.4446 H         1 UNK         0.3038 
    121 H121       34.9052   32.8472    0.3875 H         1 UNK         0.0769 
    122 H122       33.6154   32.5775   -1.7354 H         1 UNK         0.0811 
    123 H123       34.8716   31.3601   -1.6040 H         1 UNK         0.0811 
    124 H124       33.1992   30.9225   -1.2865 H         1 UNK         0.0811 
    125 H125       33.0384   30.8415    2.3467 H         1 UNK         0.3204 
    126 H126       35.1709   28.7833    2.6634 H         1 UNK         0.0748 
    127 H127       33.1641   27.8698    1.4315 H         1 UNK         0.0771 
    128 H128       33.3746   27.1165    2.9966 H         1 UNK         0.0771 
    129 H129       32.1312   28.3454    2.7712 H         1 UNK         0.0771 
    130 H130       33.0190   27.9253    4.8201 H         1 UNK         0.2980 
    131 H131       34.3101   29.3354    7.0079 H         1 UNK         0.0545 
    132 H132       31.7881   30.5502    5.2102 H         1 UNK         0.3459 
    133 H133       30.9412   31.3039    6.5342 H         1 UNK         0.3459 
    134 H134       34.2224   27.0288    7.3679 H         1 UNK         0.0616 
    135 H135       33.0270   27.6596    8.4460 H         1 UNK         0.0616 
    136 H136       33.3562   24.4303    6.9226 H         1 UNK         0.0634 
    137 H137       33.9603   25.4507    5.6364 H         1 UNK         0.0634 
@<TRIPOS>BOND
     1    1    2 1    
     2    1   72 1    
     3    1   73 1    
     4    1   74 1    
     5    2    3 2    
     6    2    4 am   BACKBONE|DICT|INTERRES
     7    4    5 1    
     8    4   75 1    
     9    5    6 1    
    10    5   35 1    
    11    5   76 1    
    12    6    7 1    
    13    6   77 1    
    14    6   78 1    
    15    7    8 1    
    16    8    9 1    
    17    8   79 1    
    18    8   80 1    
    19    9   10 ar   
    20    9   14 ar   
    21   10   11 ar   
    22   10   81 1    
    23   11   12 ar   
    24   11   71 1    
    25   12   13 ar   
    26   12   82 1    
    27   13   14 ar   
    28   13   15 1    
    29   14   83 1    
    30   15   16 1    
    31   15   84 1    
    32   15   85 1    
    33   16   17 1    
    34   17   18 1    
    35   17   86 1    
    36   17   87 1    
    37   18   19 1    
    38   18   37 1    
    39   18   88 1    
    40   19   20 am   BACKBONE|DICT|INTERRES
    41   19   89 1    
    42   20   21 2    
    43   20   22 1    
    44   22   23 1    
    45   22   24 1    
    46   22   90 1    
    47   23   91 1    
    48   23   92 1    
    49   23   93 1    
    50   24   25 am   BACKBONE|DICT|INTERRES
    51   24   94 1    
    52   25   26 2    
    53   25   27 1    
    54   27   28 1    
    55   27   29 1    
    56   27   95 1    
    57   28   96 1    
    58   28   97 1    
    59   28   98 1    
    60   29   30 am   BACKBONE|DICT|INTERRES
    61   29   99 1    
    62   30   31 2    
    63   30   32 1    
    64   32   33 1    
    65   32   34 1    
    66   32  100 1    
    67   33  101 1    
    68   33  102 1    
    69   33  103 1    
    70   34   35 am   BACKBONE|DICT|INTERRES
    71   34  104 1    
    72   35   36 2    
    73   37   38 2    
    74   37   39 am   BACKBONE|DICT|INTERRES
    75   39   40 1    
    76   39  105 1    
    77   40   41 1    
    78   40   42 1    
    79   40  106 1    
    80   41  107 1    
    81   41  108 1    
    82   41  109 1    
    83   42   43 2    
    84   42   44 am   BACKBONE|DICT|INTERRES
    85   44   45 1    
    86   44  110 1    
    87   45   46 1    
    88   45   47 1    
    89   45  111 1    
    90   46  112 1    
    91   46  113 1    
    92   46  114 1    
    93   47   48 2    
    94   47   49 am   BACKBONE|DICT|INTERRES
    95   49   50 1    
    96   49  115 1    
    97   50   51 1    
    98   50   52 1    
    99   50  116 1    
   100   51  117 1    
   101   51  118 1    
   102   51  119 1    
   103   52   53 2    
   104   52   54 am   BACKBONE|DICT|INTERRES
   105   54   55 1    
   106   54  120 1    
   107   55   56 1    
   108   55   57 1    
   109   55  121 1    
   110   56  122 1    
   111   56  123 1    
   112   56  124 1    
   113   57   58 2    
   114   57   59 am   BACKBONE|DICT|INTERRES
   115   59   60 1    
   116   59  125 1    
   117   60   61 1    
   118   60   62 1    
   119   60  126 1    
   120   61  127 1    
   121   61  128 1    
   122   61  129 1    
   123   62   63 2    
   124   62   64 am   BACKBONE|DICT|INTERRES
   125   64   65 1    
   126   64  130 1    
   127   65   66 1    
   128   65   69 1    
   129   65  131 1    
   130   66   67 am   BACKBONE|DICT|INTERRES
   131   66   68 2    
   132   67  132 1    
   133   67  133 1    
   134   69   70 1    
   135   69  134 1    
   136   69  135 1    
   137   70   71 1    
   138   71  136 1    
   139   71  137 1    
@<TRIPOS>SUBSTRUCTURE
     1 UNK         1 GROUP             0       ****    0 ROOT    
