@<TRIPOS>MOLECULE
3R136
137   139    1
SMALL
USER_CHARGES


@<TRIPOS>ATOM
      1 CA         26.0506   22.9899    3.4252 C.3       0 UNK        -0.1979 
      2 C          26.3298   22.2862    2.1056 C.2       0 UNK         0.4864 
      3 O          25.4546   21.5934    1.5849 O.2       0 UNK        -0.5359 
      4 N          27.5436   22.4524    1.5658 N.am      1 UNK        -0.4318 
      5 CA         27.9762   21.8910    0.2801 C.3       1 UNK         0.0824 
      6 C6         29.5172   21.7387    0.1843 C.3       12 UNK        -0.0944 
      7 S7         30.4586   23.1942    0.7676 S.3       12 UNK        -0.2672 
      8 C8         31.6355   22.3815    1.8938 C.3       12 UNK         0.0333 
      9 C9         32.3727   23.4010    2.7424 C.ar      12 UNK        -0.0807 
     10 C10        33.5204   24.0327    2.2534 C.ar      12 UNK        -0.0894 
     11 C11        34.1777   24.9964    3.0241 C.ar      12 UNK        -0.0804 
     12 C12        33.6886   25.3158    4.2927 C.ar      12 UNK        -0.0824 
     13 C13        32.5351   24.6989    4.7842 C.ar      12 UNK        -0.0762 
     14 C14        31.8903   23.7291    4.0125 C.ar      12 UNK        -0.0782 
     15 C15        31.9498   25.1341    6.1200 C.3       12 UNK         0.0230 
     16 S16        30.3549   25.9982    5.9207 S.3       12 UNK        -0.2608 
     17 C17        30.7124   27.1880    4.5812 C.3       12 UNK        -0.0989 
     18 CA         29.9269   26.8410    3.2958 C.3       5 UNK         0.0716 
     19 N          28.5018   27.1205    3.4551 N.am      5 UNK        -0.4135 
     20 C          27.5207   26.5228    2.7710 C.2       4 UNK         0.5031 
     21 O          27.7121   25.6153    1.9537 O.2       4 UNK        -0.5229 
     22 CA         26.0765   26.9925    3.0326 C.3       4 UNK         0.0329 
     23 CB         25.9276   28.1416    4.0562 C.3       4 UNK        -0.2001 
     24 N          25.4138   27.3025    1.7648 N.am      4 UNK        -0.4303 
     25 C          25.7249   28.2813    0.9031 C.2       3 UNK         0.5044 
     26 O          26.5162   29.1941    1.1388 O.2       3 UNK        -0.5152 
     27 CA         25.0807   28.1570   -0.4890 C.3       3 UNK         0.0319 
     28 CB         25.1492   29.4580   -1.3086 C.3       3 UNK        -0.2001 
     29 N          25.7403   27.0836   -1.2347 N.am      3 UNK        -0.4354 
     30 C          25.5177   25.7771   -1.0386 C.2       2 UNK         0.4964 
     31 O          24.6448   25.3469   -0.2811 O.2       2 UNK        -0.5047 
     32 CA         26.4233   24.7757   -1.7634 C.3       2 UNK         0.0288 
     33 CB         27.4962   25.4016   -2.6788 C.3       2 UNK        -0.2113 
     34 N          27.0519   23.9335   -0.7498 N.am      2 UNK        -0.4145 
     35 C          27.4039   22.6552   -0.9316 C.2       1 UNK         0.5006 
     36 O          27.2835   22.0631   -2.0065 O.2       1 UNK        -0.5103 
     37 C          30.4237   27.6197    2.0677 C.2       5 UNK         0.5055 
     38 O          30.8864   28.7563    2.2007 O.2       5 UNK        -0.5220 
     39 N          30.2403   27.0059    0.8904 N.am      6 UNK        -0.4450 
     40 CA         30.4696   27.5254   -0.4609 C.3       6 UNK         0.0367 
     41 CB         31.9517   27.8700   -0.7057 C.3       6 UNK        -0.1929 
     42 C          29.5354   28.6933   -0.8191 C.2       6 UNK         0.5070 
     43 O          28.6933   28.5418   -1.7046 O.2       6 UNK        -0.5237 
     44 N          29.7015   29.8262   -0.1303 N.am      7 UNK        -0.4739 
     45 CA         28.9219   31.0488   -0.3202 C.3       7 UNK         0.0276 
     46 CB         29.5456   31.8810   -1.4582 C.3       7 UNK        -0.1927 
     47 C          28.7593   31.8759    0.9677 C.2       7 UNK         0.5013 
     48 O          28.2216   32.9824    0.8862 O.2       7 UNK        -0.5193 
     49 N          29.2260   31.3772    2.1217 N.am      8 UNK        -0.4253 
     50 CA         29.1976   32.0945    3.3976 C.3       8 UNK         0.0242 
     51 CB         30.3300   33.1476    3.4381 C.3       8 UNK        -0.2000 
     52 C          29.2449   31.0935    4.5627 C.2       8 UNK         0.4948 
     53 O          28.8036   29.9541    4.4057 O.2       8 UNK        -0.5275 
     54 N          29.7671   31.5363    5.7147 N.am      9 UNK        -0.4246 
     55 CA         29.9850   30.7206    6.9147 C.3       9 UNK         0.0261 
     56 CB         29.9095   31.6299    8.1531 C.3       9 UNK        -0.1959 
     57 C          31.3214   29.9514    6.8924 C.2       9 UNK         0.5033 
     58 O          31.5233   29.0812    7.7398 O.2       9 UNK        -0.5390 
     59 N          32.2018   30.2720    5.9371 N.am      10 UNK        -0.4215 
     60 CA         33.4899   29.6365    5.6777 C.3       10 UNK         0.0240 
     61 CB         34.5199   30.0466    6.7488 C.3       10 UNK        -0.1982 
     62 C          33.9512   30.0703    4.2804 C.2       10 UNK         0.4970 
     63 O          33.4587   31.0791    3.7678 O.2       10 UNK        -0.4916 
     64 N          34.9048   29.3273    3.7069 N.am      11 UNK        -0.4279 
     65 CA         35.5186   29.6360    2.4017 C.3       11 UNK         0.1003 
     66 C          36.5559   30.7976    2.4346 C.2       11 UNK         0.5709 
     67 N          36.9709   31.2930    3.5950 N.am      11 UNK        -0.7358 
     68 O          36.9869   31.2653    1.3832 O.2       11 UNK        -0.4999 
     69 C69        36.1186   28.3734    1.7264 C.3       12 UNK        -0.0954 
     70 S70        34.8517   27.1025    1.4075 S.3       12 UNK        -0.2268 
     71 C71        35.3877   25.7314    2.4747 C.3       12 UNK         0.0203 
     72 H72        25.7902   22.2606    4.1917 H         1 UNK         0.0888 
     73 H73        26.9135   23.5560    3.7758 H         1 UNK         0.0888 
     74 H74        25.2138   23.6779    3.3104 H         1 UNK         0.0888 
     75 H75        28.2134   23.0641    2.0136 H         1 UNK         0.3017 
     76 H76        27.5585   20.8839    0.2092 H         1 UNK         0.0873 
     77 H77        29.8309   21.5062   -0.8355 H         1 UNK         0.0745 
     78 H78        29.8107   20.8678    0.7718 H         1 UNK         0.0745 
     79 H79        32.3449   21.7904    1.3124 H         1 UNK         0.0705 
     80 H80        31.1043   21.6810    2.5404 H         1 UNK         0.0705 
     81 H81        33.8856   23.7951    1.2634 H         1 UNK         0.1334 
     82 H82        34.1842   26.0748    4.8818 H         1 UNK         0.1417 
     83 H83        30.9897   23.2611    4.3867 H         1 UNK         0.1562 
     84 H84        32.6393   25.7929    6.6506 H         1 UNK         0.0748 
     85 H85        31.8066   24.2607    6.7576 H         1 UNK         0.0748 
     86 H86        31.7828   27.2300    4.3852 H         1 UNK         0.0940 
     87 H87        30.4513   28.1821    4.9308 H         1 UNK         0.0940 
     88 H88        30.0676   25.7771    3.0919 H         1 UNK         0.0703 
     89 H89        28.2842   27.9354    4.0187 H         1 UNK         0.3081 
     90 H90        25.5545   26.1279    3.4431 H         1 UNK         0.0719 
     91 H91        26.4199   29.0572    3.7293 H         1 UNK         0.0809 
     92 H92        24.8771   28.3791    4.2230 H         1 UNK         0.0809 
     93 H93        26.3484   27.8678    5.0247 H         1 UNK         0.0809 
     94 H94        24.8229   26.5632    1.3987 H         1 UNK         0.2990 
     95 H95        24.0257   27.9112   -0.3488 H         1 UNK         0.0690 
     96 H96        24.5580   29.3781   -2.2208 H         1 UNK         0.0788 
     97 H97        26.1706   29.7005   -1.5987 H         1 UNK         0.0788 
     98 H98        24.7571   30.3024   -0.7402 H         1 UNK         0.0788 
     99 H99        26.5250   27.3603   -1.8112 H         1 UNK         0.2993 
    100 H100       25.7601   24.1642   -2.3793 H         1 UNK         0.0949 
    101 H101       28.2208   25.9805   -2.1095 H         1 UNK         0.0767 
    102 H102       28.0471   24.6308   -3.2182 H         1 UNK         0.0767 
    103 H103       27.0521   26.0564   -3.4297 H         1 UNK         0.0767 
    104 H104       27.1488   24.3433    0.1734 H         1 UNK         0.3013 
    105 H105       29.7744   26.1069    0.9229 H         1 UNK         0.3121 
    106 H106       30.2219   26.7060   -1.1364 H         1 UNK         0.0774 
    107 H107       32.1025   28.2390   -1.7209 H         1 UNK         0.0815 
    108 H108       32.3224   28.6359   -0.0243 H         1 UNK         0.0815 
    109 H109       32.5797   26.9874   -0.5874 H         1 UNK         0.0815 
    110 H110       30.3873   29.8178    0.6185 H         1 UNK         0.2987 
    111 H111       27.9082   30.7745   -0.6127 H         1 UNK         0.0949 
    112 H112       28.9662   32.7845   -1.6524 H         1 UNK         0.0806 
    113 H113       30.5630   32.1895   -1.2156 H         1 UNK         0.0806 
    114 H114       29.5787   31.3176   -2.3908 H         1 UNK         0.0806 
    115 H115       29.5768   30.4261    2.1720 H         1 UNK         0.3010 
    116 H116       28.2387   32.6099    3.4843 H         1 UNK         0.0829 
    117 H117       30.2742   33.8245    2.5855 H         1 UNK         0.0813 
    118 H118       30.2724   33.7741    4.3285 H         1 UNK         0.0813 
    119 H119       31.3147   32.6799    3.4179 H         1 UNK         0.0813 
    120 H120       30.0801   32.4955    5.7612 H         1 UNK         0.3038 
    121 H121       29.1870   29.9782    6.9887 H         1 UNK         0.0769 
    122 H122       28.9464   32.1369    8.2152 H         1 UNK         0.0811 
    123 H123       30.6913   32.3904    8.1456 H         1 UNK         0.0811 
    124 H124       30.0276   31.0511    9.0704 H         1 UNK         0.0811 
    125 H125       31.9605   30.9772    5.2512 H         1 UNK         0.3204 
    126 H126       33.3581   28.5530    5.6861 H         1 UNK         0.0748 
    127 H127       34.6666   31.1273    6.7714 H         1 UNK         0.0771 
    128 H128       34.2077   29.7329    7.7449 H         1 UNK         0.0771 
    129 H129       35.4908   29.5868    6.5611 H         1 UNK         0.0771 
    130 H130       35.2782   28.5278    4.1944 H         1 UNK         0.2980 
    131 H131       34.7191   29.9907    1.7477 H         1 UNK         0.0545 
    132 H132       37.6388   32.0478    3.5967 H         1 UNK         0.3459 
    133 H133       36.6245   30.9237    4.4646 H         1 UNK         0.3459 
    134 H134       36.9316   27.9626    2.3269 H         1 UNK         0.0616 
    135 H135       36.5581   28.6288    0.7603 H         1 UNK         0.0616 
    136 H136       35.9990   26.1037    3.2977 H         1 UNK         0.0634 
    137 H137       36.0191   25.0513    1.9012 H         1 UNK         0.0634 
@<TRIPOS>BOND
     1    1    2 1    
     2    1   72 1    
     3    1   73 1    
     4    1   74 1    
     5    2    3 2    
     6    2    4 am   BACKBONE|DICT|INTERRES
     7    4    5 1    
     8    4   75 1    
     9    5    6 1    
    10    5   35 1    
    11    5   76 1    
    12    6    7 1    
    13    6   77 1    
    14    6   78 1    
    15    7    8 1    
    16    8    9 1    
    17    8   79 1    
    18    8   80 1    
    19    9   10 ar   
    20    9   14 ar   
    21   10   11 ar   
    22   10   81 1    
    23   11   12 ar   
    24   11   71 1    
    25   12   13 ar   
    26   12   82 1    
    27   13   14 ar   
    28   13   15 1    
    29   14   83 1    
    30   15   16 1    
    31   15   84 1    
    32   15   85 1    
    33   16   17 1    
    34   17   18 1    
    35   17   86 1    
    36   17   87 1    
    37   18   19 1    
    38   18   37 1    
    39   18   88 1    
    40   19   20 am   BACKBONE|DICT|INTERRES
    41   19   89 1    
    42   20   21 2    
    43   20   22 1    
    44   22   23 1    
    45   22   24 1    
    46   22   90 1    
    47   23   91 1    
    48   23   92 1    
    49   23   93 1    
    50   24   25 am   BACKBONE|DICT|INTERRES
    51   24   94 1    
    52   25   26 2    
    53   25   27 1    
    54   27   28 1    
    55   27   29 1    
    56   27   95 1    
    57   28   96 1    
    58   28   97 1    
    59   28   98 1    
    60   29   30 am   BACKBONE|DICT|INTERRES
    61   29   99 1    
    62   30   31 2    
    63   30   32 1    
    64   32   33 1    
    65   32   34 1    
    66   32  100 1    
    67   33  101 1    
    68   33  102 1    
    69   33  103 1    
    70   34   35 am   BACKBONE|DICT|INTERRES
    71   34  104 1    
    72   35   36 2    
    73   37   38 2    
    74   37   39 am   BACKBONE|DICT|INTERRES
    75   39   40 1    
    76   39  105 1    
    77   40   41 1    
    78   40   42 1    
    79   40  106 1    
    80   41  107 1    
    81   41  108 1    
    82   41  109 1    
    83   42   43 2    
    84   42   44 am   BACKBONE|DICT|INTERRES
    85   44   45 1    
    86   44  110 1    
    87   45   46 1    
    88   45   47 1    
    89   45  111 1    
    90   46  112 1    
    91   46  113 1    
    92   46  114 1    
    93   47   48 2    
    94   47   49 am   BACKBONE|DICT|INTERRES
    95   49   50 1    
    96   49  115 1    
    97   50   51 1    
    98   50   52 1    
    99   50  116 1    
   100   51  117 1    
   101   51  118 1    
   102   51  119 1    
   103   52   53 2    
   104   52   54 am   BACKBONE|DICT|INTERRES
   105   54   55 1    
   106   54  120 1    
   107   55   56 1    
   108   55   57 1    
   109   55  121 1    
   110   56  122 1    
   111   56  123 1    
   112   56  124 1    
   113   57   58 2    
   114   57   59 am   BACKBONE|DICT|INTERRES
   115   59   60 1    
   116   59  125 1    
   117   60   61 1    
   118   60   62 1    
   119   60  126 1    
   120   61  127 1    
   121   61  128 1    
   122   61  129 1    
   123   62   63 2    
   124   62   64 am   BACKBONE|DICT|INTERRES
   125   64   65 1    
   126   64  130 1    
   127   65   66 1    
   128   65   69 1    
   129   65  131 1    
   130   66   67 am   BACKBONE|DICT|INTERRES
   131   66   68 2    
   132   67  132 1    
   133   67  133 1    
   134   69   70 1    
   135   69  134 1    
   136   69  135 1    
   137   70   71 1    
   138   71  136 1    
   139   71  137 1    
@<TRIPOS>SUBSTRUCTURE
     1 UNK         1 GROUP             0       ****    0 ROOT    
