@<TRIPOS>MOLECULE
3R136
137   139    1
SMALL
USER_CHARGES


@<TRIPOS>ATOM
      1 CA         26.0399   20.2221   -0.8900 C.3       0 UNK        -0.1979 
      2 C          26.8102   21.5177   -0.6878 C.2       0 UNK         0.4864 
      3 O          26.2500   22.6000   -0.8716 O.2       0 UNK        -0.5359 
      4 N          28.0865   21.4243   -0.2848 N.am      1 UNK        -0.4318 
      5 CA         28.9944   22.5639   -0.0843 C.3       1 UNK         0.0824 
      6 C6         30.4745   22.1208    0.0025 C.3       12 UNK        -0.0944 
      7 S7         30.8865   21.1560    1.4988 S.3       12 UNK        -0.2672 
      8 C8         32.5565   21.7764    1.8907 C.3       12 UNK         0.0333 
      9 C9         32.5539   23.2437    2.3010 C.ar      12 UNK        -0.0807 
     10 C10        33.0589   24.2214    1.4388 C.ar      12 UNK        -0.0894 
     11 C11        33.0598   25.5711    1.8029 C.ar      12 UNK        -0.0804 
     12 C12        32.5469   25.9330    3.0568 C.ar      12 UNK        -0.0824 
     13 C13        32.0466   24.9655    3.9366 C.ar      12 UNK        -0.0762 
     14 C14        32.0563   23.6224    3.5496 C.ar      12 UNK        -0.0782 
     15 C15        31.5064   25.3365    5.3177 C.3       12 UNK         0.0230 
     16 S16        30.5776   26.9082    5.3955 S.3       12 UNK        -0.2608 
     17 C17        29.3572   26.7189    4.0554 C.3       12 UNK        -0.0989 
     18 CA         29.4288   27.8934    3.0428 C.3       5 UNK         0.0716 
     19 N          29.1493   27.4502    1.6732 N.am      5 UNK        -0.4135 
     20 C          29.1828   28.2251    0.5797 C.2       4 UNK         0.5031 
     21 O          29.5117   29.4092    0.5809 O.2       4 UNK        -0.5229 
     22 CA         28.7006   27.5893   -0.7332 C.3       4 UNK         0.0329 
     23 CB         29.8271   26.7896   -1.4087 C.3       4 UNK        -0.2001 
     24 N          27.5221   26.7434   -0.5254 N.am      4 UNK        -0.4303 
     25 C          26.3154   27.2096   -0.1678 C.2       3 UNK         0.5044 
     26 O          26.0508   28.4059   -0.0531 O.2       3 UNK        -0.5152 
     27 CA         25.2392   26.1647    0.1734 C.3       3 UNK         0.0319 
     28 CB         24.5817   25.6213   -1.1044 C.3       3 UNK        -0.2001 
     29 N          25.7715   25.0552    0.9690 N.am      3 UNK        -0.4354 
     30 C          26.2344   25.1853    2.2238 C.2       2 UNK         0.4964 
     31 O          26.1896   26.2384    2.8589 O.2       2 UNK        -0.5047 
     32 CA         26.9133   23.9578    2.8634 C.3       2 UNK         0.0288 
     33 CB         25.8835   23.1133    3.6295 C.3       2 UNK        -0.2113 
     34 N          27.6127   23.1095    1.8953 N.am      2 UNK        -0.4145 
     35 C          28.5797   23.5198    1.0597 C.2       1 UNK         0.5006 
     36 O          29.0852   24.6405    1.1203 O.2       1 UNK        -0.5103 
     37 C          28.5200   29.0624    3.4817 C.2       5 UNK         0.5055 
     38 O          29.0079   30.0494    4.0331 O.2       5 UNK        -0.5220 
     39 N          27.2129   28.9336    3.2106 N.am      6 UNK        -0.4450 
     40 CA         26.2062   29.9622    3.4722 C.3       6 UNK         0.0367 
     41 CB         24.8029   29.3586    3.3019 C.3       6 UNK        -0.1929 
     42 C          26.3729   31.2088    2.5857 C.2       6 UNK         0.5070 
     43 O          26.1846   32.3225    3.0761 O.2       6 UNK        -0.5237 
     44 N          26.7039   31.0060    1.3028 N.am      7 UNK        -0.4739 
     45 CA         26.8956   32.0756    0.3211 C.3       7 UNK         0.0276 
     46 CB         26.8810   31.4819   -1.0969 C.3       7 UNK        -0.1927 
     47 C          28.1776   32.8934    0.5522 C.2       7 UNK         0.5013 
     48 O          28.1271   34.1215    0.4648 O.2       7 UNK        -0.5193 
     49 N          29.2958   32.2044    0.8125 N.am      8 UNK        -0.4253 
     50 CA         30.6152   32.7946    1.0242 C.3       8 UNK         0.0242 
     51 CB         31.6754   31.9473    0.2877 C.3       8 UNK        -0.2000 
     52 C          30.8861   32.9547    2.5291 C.2       8 UNK         0.4948 
     53 O          30.4007   33.9134    3.1321 O.2       8 UNK        -0.5275 
     54 N          31.6794   32.0440    3.0999 N.am      9 UNK        -0.4246 
     55 CA         32.1324   32.0192    4.4869 C.3       9 UNK         0.0261 
     56 CB         33.2590   33.0550    4.6911 C.3       9 UNK        -0.1959 
     57 C          32.5931   30.5888    4.8037 C.2       9 UNK         0.5033 
     58 O          32.4114   29.6949    3.9747 O.2       9 UNK        -0.5390 
     59 N          33.2046   30.3882    5.9782 N.am      10 UNK        -0.4215 
     60 CA         33.7289   29.1054    6.4623 C.3       10 UNK         0.0240 
     61 CB         33.9375   29.1986    7.9859 C.3       10 UNK        -0.1982 
     62 C          34.9962   28.6282    5.7163 C.2       10 UNK         0.4970 
     63 O          36.0453   28.4432    6.3370 O.2       10 UNK        -0.4916 
     64 N          34.8757   28.4414    4.3982 N.am      11 UNK        -0.4279 
     65 CA         35.8616   27.8031    3.5147 C.3       11 UNK         0.1003 
     66 C          36.0418   26.2747    3.7673 C.2       11 UNK         0.5709 
     67 N          36.9444   25.6259    3.0424 N.am      11 UNK        -0.7358 
     68 O          35.4041   25.6691    4.6264 O.2       11 UNK        -0.4999 
     69 C69        35.6392   28.1782    2.0156 C.3       12 UNK        -0.0954 
     70 S70        33.9064   28.2671    1.4364 S.3       12 UNK        -0.2268 
     71 C71        33.5873   26.5906    0.7903 C.3       12 UNK         0.0203 
     72 H72        25.6934   20.1506   -1.9206 H         1 UNK         0.0888 
     73 H73        26.6520   19.3461   -0.6761 H         1 UNK         0.0888 
     74 H74        25.1694   20.1970   -0.2352 H         1 UNK         0.0888 
     75 H75        28.4937   20.5136   -0.1218 H         1 UNK         0.3017 
     76 H76        28.9129   23.1677   -0.9909 H         1 UNK         0.0873 
     77 H77        31.1149   23.0004   -0.0619 H         1 UNK         0.0745 
     78 H78        30.7314   21.5169   -0.8692 H         1 UNK         0.0745 
     79 H79        33.2087   21.6146    1.0309 H         1 UNK         0.0705 
     80 H80        32.9716   21.1781    2.7031 H         1 UNK         0.0705 
     81 H81        33.4448   23.9311    0.4711 H         1 UNK         0.1334 
     82 H82        32.5305   26.9689    3.3605 H         1 UNK         0.1417 
     83 H83        31.6720   22.8642    4.2184 H         1 UNK         0.1562 
     84 H84        32.3469   25.3969    6.0102 H         1 UNK         0.0748 
     85 H85        30.8542   24.5457    5.6917 H         1 UNK         0.0748 
     86 H86        28.3635   26.6110    4.4945 H         1 UNK         0.0940 
     87 H87        29.5469   25.7738    3.5474 H         1 UNK         0.0940 
     88 H88        30.4510   28.2739    3.0115 H         1 UNK         0.0703 
     89 H89        28.9461   26.4619    1.5461 H         1 UNK         0.3081 
     90 H90        28.4141   28.3978   -1.4089 H         1 UNK         0.0719 
     91 H91        29.4961   26.3548   -2.3518 H         1 UNK         0.0809 
     92 H92        30.6765   27.4368   -1.6315 H         1 UNK         0.0809 
     93 H93        30.1979   25.9824   -0.7773 H         1 UNK         0.0809 
     94 H94        27.6665   25.7448   -0.5499 H         1 UNK         0.2990 
     95 H95        24.4689   26.6633    0.7659 H         1 UNK         0.0690 
     96 H96        24.1528   26.4308   -1.6967 H         1 UNK         0.0788 
     97 H97        23.7740   24.9278   -0.8698 H         1 UNK         0.0788 
     98 H98        25.2982   25.0966   -1.7379 H         1 UNK         0.0788 
     99 H99        25.8591   24.1596    0.4990 H         1 UNK         0.2993 
    100 H100       27.6538   24.3221    3.5766 H         1 UNK         0.0949 
    101 H101       25.1287   22.6933    2.9632 H         1 UNK         0.0767 
    102 H102       26.3614   22.2890    4.1596 H         1 UNK         0.0767 
    103 H103       25.3622   23.7164    4.3745 H         1 UNK         0.0767 
    104 H104       27.2597   22.1718    1.7748 H         1 UNK         0.3013 
    105 H105       26.8792   28.0548    2.8235 H         1 UNK         0.3121 
    106 H106       26.3156   30.2787    4.5118 H         1 UNK         0.0774 
    107 H107       24.6386   28.9991    2.2854 H         1 UNK         0.0815 
    108 H108       24.0308   30.0987    3.5159 H         1 UNK         0.0815 
    109 H109       24.6468   28.5202    3.9810 H         1 UNK         0.0815 
    110 H110       26.7815   30.0528    0.9628 H         1 UNK         0.2987 
    111 H111       26.0499   32.7620    0.4048 H         1 UNK         0.0949 
    112 H112       27.6890   30.7644   -1.2421 H         1 UNK         0.0806 
    113 H113       25.9401   30.9713   -1.3031 H         1 UNK         0.0806 
    114 H114       26.9981   32.2631   -1.8492 H         1 UNK         0.0806 
    115 H115       29.2480   31.1867    0.8542 H         1 UNK         0.3010 
    116 H116       30.6473   33.7963    0.5901 H         1 UNK         0.0829 
    117 H117       31.4893   31.9402   -0.7864 H         1 UNK         0.0813 
    118 H118       32.6764   32.3549    0.4360 H         1 UNK         0.0813 
    119 H119       31.6884   30.9090    0.6213 H         1 UNK         0.0813 
    120 H120       31.9542   31.2210    2.5760 H         1 UNK         0.3038 
    121 H121       31.2879   32.2519    5.1388 H         1 UNK         0.0769 
    122 H122       34.1410   32.8090    4.0981 H         1 UNK         0.0811 
    123 H123       33.5687   33.1125    5.7347 H         1 UNK         0.0811 
    124 H124       32.9370   34.0565    4.4055 H         1 UNK         0.0811 
    125 H125       33.3415   31.1812    6.5877 H         1 UNK         0.3204 
    126 H126       32.9666   28.3447    6.2875 H         1 UNK         0.0748 
    127 H127       34.2813   28.2464    8.3925 H         1 UNK         0.0771 
    128 H128       34.6805   29.9533    8.2472 H         1 UNK         0.0771 
    129 H129       33.0085   29.4482    8.4991 H         1 UNK         0.0771 
    130 H130       33.9793   28.6680    3.9737 H         1 UNK         0.2980 
    131 H131       36.8269   28.2287    3.7953 H         1 UNK         0.0545 
    132 H132       37.0756   24.6397    3.2020 H         1 UNK         0.3459 
    133 H133       37.4984   26.0992    2.3466 H         1 UNK         0.3459 
    134 H134       36.0474   29.1777    1.8591 H         1 UNK         0.0616 
    135 H135       36.2127   27.5415    1.3411 H         1 UNK         0.0616 
    136 H136       32.8454   26.6808   -0.0041 H         1 UNK         0.0634 
    137 H137       34.4956   26.2113    0.3200 H         1 UNK         0.0634 
@<TRIPOS>BOND
     1    1    2 1    
     2    1   72 1    
     3    1   73 1    
     4    1   74 1    
     5    2    3 2    
     6    2    4 am   BACKBONE|DICT|INTERRES
     7    4    5 1    
     8    4   75 1    
     9    5    6 1    
    10    5   35 1    
    11    5   76 1    
    12    6    7 1    
    13    6   77 1    
    14    6   78 1    
    15    7    8 1    
    16    8    9 1    
    17    8   79 1    
    18    8   80 1    
    19    9   10 ar   
    20    9   14 ar   
    21   10   11 ar   
    22   10   81 1    
    23   11   12 ar   
    24   11   71 1    
    25   12   13 ar   
    26   12   82 1    
    27   13   14 ar   
    28   13   15 1    
    29   14   83 1    
    30   15   16 1    
    31   15   84 1    
    32   15   85 1    
    33   16   17 1    
    34   17   18 1    
    35   17   86 1    
    36   17   87 1    
    37   18   19 1    
    38   18   37 1    
    39   18   88 1    
    40   19   20 am   BACKBONE|DICT|INTERRES
    41   19   89 1    
    42   20   21 2    
    43   20   22 1    
    44   22   23 1    
    45   22   24 1    
    46   22   90 1    
    47   23   91 1    
    48   23   92 1    
    49   23   93 1    
    50   24   25 am   BACKBONE|DICT|INTERRES
    51   24   94 1    
    52   25   26 2    
    53   25   27 1    
    54   27   28 1    
    55   27   29 1    
    56   27   95 1    
    57   28   96 1    
    58   28   97 1    
    59   28   98 1    
    60   29   30 am   BACKBONE|DICT|INTERRES
    61   29   99 1    
    62   30   31 2    
    63   30   32 1    
    64   32   33 1    
    65   32   34 1    
    66   32  100 1    
    67   33  101 1    
    68   33  102 1    
    69   33  103 1    
    70   34   35 am   BACKBONE|DICT|INTERRES
    71   34  104 1    
    72   35   36 2    
    73   37   38 2    
    74   37   39 am   BACKBONE|DICT|INTERRES
    75   39   40 1    
    76   39  105 1    
    77   40   41 1    
    78   40   42 1    
    79   40  106 1    
    80   41  107 1    
    81   41  108 1    
    82   41  109 1    
    83   42   43 2    
    84   42   44 am   BACKBONE|DICT|INTERRES
    85   44   45 1    
    86   44  110 1    
    87   45   46 1    
    88   45   47 1    
    89   45  111 1    
    90   46  112 1    
    91   46  113 1    
    92   46  114 1    
    93   47   48 2    
    94   47   49 am   BACKBONE|DICT|INTERRES
    95   49   50 1    
    96   49  115 1    
    97   50   51 1    
    98   50   52 1    
    99   50  116 1    
   100   51  117 1    
   101   51  118 1    
   102   51  119 1    
   103   52   53 2    
   104   52   54 am   BACKBONE|DICT|INTERRES
   105   54   55 1    
   106   54  120 1    
   107   55   56 1    
   108   55   57 1    
   109   55  121 1    
   110   56  122 1    
   111   56  123 1    
   112   56  124 1    
   113   57   58 2    
   114   57   59 am   BACKBONE|DICT|INTERRES
   115   59   60 1    
   116   59  125 1    
   117   60   61 1    
   118   60   62 1    
   119   60  126 1    
   120   61  127 1    
   121   61  128 1    
   122   61  129 1    
   123   62   63 2    
   124   62   64 am   BACKBONE|DICT|INTERRES
   125   64   65 1    
   126   64  130 1    
   127   65   66 1    
   128   65   69 1    
   129   65  131 1    
   130   66   67 am   BACKBONE|DICT|INTERRES
   131   66   68 2    
   132   67  132 1    
   133   67  133 1    
   134   69   70 1    
   135   69  134 1    
   136   69  135 1    
   137   70   71 1    
   138   71  136 1    
   139   71  137 1    
@<TRIPOS>SUBSTRUCTURE
     1 UNK         1 GROUP             0       ****    0 ROOT    
