@<TRIPOS>MOLECULE
3R136
137   139    1
SMALL
USER_CHARGES


@<TRIPOS>ATOM
      1 CA         24.7035   19.6162    3.1270 C.3       0 UNK        -0.1979 
      2 C          25.6587   19.8647    1.9688 C.2       0 UNK         0.4864 
      3 O          25.6340   19.1225    0.9856 O.2       0 UNK        -0.5359 
      4 N          26.5044   20.8977    2.0797 N.am      1 UNK        -0.4318 
      5 CA         27.4421   21.3245    1.0383 C.3       1 UNK         0.0824 
      6 C6         28.5144   22.2797    1.6176 C.3       12 UNK        -0.0944 
      7 S7         29.9416   22.5190    0.5015 S.3       12 UNK        -0.2672 
      8 C8         31.3566   22.3294    1.6369 C.3       12 UNK         0.0333 
      9 C9         31.5702   23.5792    2.4805 C.ar      12 UNK        -0.0807 
     10 C10        32.4683   24.5683    2.0650 C.ar      12 UNK        -0.0894 
     11 C11        32.6531   25.7318    2.8211 C.ar      12 UNK        -0.0804 
     12 C12        31.9151   25.9003    3.9994 C.ar      12 UNK        -0.0824 
     13 C13        30.9970   24.9300    4.4121 C.ar      12 UNK        -0.0762 
     14 C14        30.8530   23.7592    3.6658 C.ar      12 UNK        -0.0782 
     15 C15        30.0983   25.1729    5.6156 C.3       12 UNK         0.0230 
     16 S16        28.3987   25.5903    5.0893 S.3       12 UNK        -0.2608 
     17 C17        28.6384   27.2350    4.3347 C.3       12 UNK        -0.0989 
     18 CA         28.9132   27.1662    2.8056 C.3       5 UNK         0.0716 
     19 N          27.8219   26.5901    2.0171 N.am      5 UNK        -0.4135 
     20 C          26.5927   27.0865    1.8301 C.2       4 UNK         0.5031 
     21 O          26.1644   28.0982    2.3870 O.2       4 UNK        -0.5229 
     22 CA         25.7214   26.3296    0.8031 C.3       4 UNK         0.0329 
     23 CB         24.5662   27.1909    0.2505 C.3       4 UNK        -0.2001 
     24 N          26.5050   25.7444   -0.2992 N.am      4 UNK        -0.4303 
     25 C          27.3172   26.4009   -1.1480 C.2       3 UNK         0.5044 
     26 O          27.4873   27.6195   -1.1123 O.2       3 UNK        -0.5152 
     27 CA         28.1406   25.5809   -2.1606 C.3       3 UNK         0.0319 
     28 CB         29.6421   25.7067   -1.8462 C.3       3 UNK        -0.2001 
     29 N          27.7873   24.1616   -2.1945 N.am      3 UNK        -0.4354 
     30 C          26.7068   23.6516   -2.8024 C.2       2 UNK         0.4964 
     31 O          25.9205   24.3187   -3.4749 O.2       2 UNK        -0.5047 
     32 CA         26.4412   22.1474   -2.6016 C.3       2 UNK         0.0288 
     33 CB         26.9659   21.3440   -3.8027 C.3       2 UNK        -0.2113 
     34 N          27.0168   21.6002   -1.3661 N.am      2 UNK        -0.4145 
     35 C          26.6764   21.9816   -0.1263 C.2       1 UNK         0.5006 
     36 O          25.8391   22.8554    0.1160 O.2       1 UNK        -0.5103 
     37 C          29.4916   28.4813    2.2315 C.2       5 UNK         0.5055 
     38 O          30.2220   29.1727    2.9464 O.2       5 UNK        -0.5220 
     39 N          29.2222   28.7749    0.9474 N.am      6 UNK        -0.4450 
     40 CA         29.7878   29.8664    0.1481 C.3       6 UNK         0.0367 
     41 CB         31.2454   29.5235   -0.2393 C.3       6 UNK        -0.1929 
     42 C          29.6213   31.2385    0.8303 C.2       6 UNK         0.5070 
     43 O          28.4921   31.6376    1.1227 O.2       6 UNK        -0.5237 
     44 N          30.7381   31.9267    1.0973 N.am      7 UNK        -0.4739 
     45 CA         30.8102   33.1866    1.8355 C.3       7 UNK         0.0276 
     46 CB         32.1526   33.8698    1.5135 C.3       7 UNK        -0.1927 
     47 C          30.6119   32.9673    3.3478 C.2       7 UNK         0.5013 
     48 O          31.5554   33.1406    4.1199 O.2       7 UNK        -0.5193 
     49 N          29.3956   32.5586    3.7358 N.am      8 UNK        -0.4253 
     50 CA         28.8906   32.4123    5.1093 C.3       8 UNK         0.0242 
     51 CB         28.5664   33.8055    5.6887 C.3       8 UNK        -0.2000 
     52 C          29.8009   31.5856    6.0432 C.2       8 UNK         0.4948 
     53 O          29.9900   31.9581    7.2025 O.2       8 UNK        -0.5275 
     54 N          30.3697   30.4954    5.5093 N.am      9 UNK        -0.4246 
     55 CA         31.3144   29.5758    6.1533 C.3       9 UNK         0.0261 
     56 CB         30.7045   28.9072    7.4047 C.3       9 UNK        -0.1959 
     57 C          32.7204   30.1512    6.4149 C.2       9 UNK         0.5033 
     58 O          33.5329   29.4561    7.0273 O.2       9 UNK        -0.5390 
     59 N          33.0256   31.3588    5.9133 N.am      10 UNK        -0.4215 
     60 CA         34.3969   31.8779    5.8418 C.3       10 UNK         0.0240 
     61 CB         34.3762   33.4145    5.7936 C.3       10 UNK        -0.1982 
     62 C          35.1538   31.3052    4.6288 C.2       10 UNK         0.4970 
     63 O          36.3837   31.2583    4.6574 O.2       10 UNK        -0.4916 
     64 N          34.4047   30.8811    3.5994 N.am      11 UNK        -0.4279 
     65 CA         34.8737   30.2202    2.3684 C.3       11 UNK         0.1003 
     66 C          35.7173   31.1176    1.4116 C.2       11 UNK         0.5709 
     67 N          35.7935   32.4266    1.6200 N.am      11 UNK        -0.7358 
     68 O          36.2816   30.6267    0.4368 O.2       11 UNK        -0.4999 
     69 C69        35.5390   28.8354    2.6272 C.3       12 UNK        -0.0954 
     70 S70        34.5067   27.6995    3.6169 S.3       12 UNK        -0.2268 
     71 C71        33.5939   26.8201    2.3051 C.3       12 UNK         0.0203 
     72 H72        23.6717   19.6854    2.7833 H         1 UNK         0.0888 
     73 H73        24.8608   18.6184    3.5358 H         1 UNK         0.0888 
     74 H74        24.8417   20.3378    3.9320 H         1 UNK         0.0888 
     75 H75        26.4545   21.4904    2.8958 H         1 UNK         0.3017 
     76 H76        27.9461   20.4283    0.6686 H         1 UNK         0.0873 
     77 H77        28.8799   21.8554    2.5523 H         1 UNK         0.0745 
     78 H78        28.0910   23.2528    1.8747 H         1 UNK         0.0745 
     79 H79        31.2127   21.4560    2.2747 H         1 UNK         0.0705 
     80 H80        32.2507   22.1253    1.0459 H         1 UNK         0.0705 
     81 H81        33.0127   24.4375    1.1396 H         1 UNK         0.1334 
     82 H82        32.0198   26.8090    4.5716 H         1 UNK         0.1417 
     83 H83        30.1458   23.0105    3.9922 H         1 UNK         0.1562 
     84 H84        30.4956   25.9673    6.2492 H         1 UNK         0.0748 
     85 H85        30.0681   24.2745    6.2337 H         1 UNK         0.0748 
     86 H86        29.4596   27.7172    4.8618 H         1 UNK         0.0940 
     87 H87        27.7593   27.8477    4.5390 H         1 UNK         0.0940 
     88 H88        29.7223   26.4593    2.6456 H         1 UNK         0.0703 
     89 H89        28.0592   25.7477    1.5151 H         1 UNK         0.3081 
     90 H90        25.2795   25.4900    1.3419 H         1 UNK         0.0719 
     91 H91        24.9335   28.0848   -0.2546 H         1 UNK         0.0809 
     92 H92        23.9586   26.6298   -0.4594 H         1 UNK         0.0809 
     93 H93        23.9044   27.5198    1.0527 H         1 UNK         0.0809 
     94 H94        26.4166   24.7375   -0.3946 H         1 UNK         0.2990 
     95 H95        27.9610   26.0095   -3.1488 H         1 UNK         0.0690 
     96 H96        30.2469   25.1557   -2.5667 H         1 UNK         0.0788 
     97 H97        29.8825   25.3322   -0.8503 H         1 UNK         0.0788 
     98 H98        29.9645   26.7479   -1.8883 H         1 UNK         0.0788 
     99 H99        28.3850   23.5342   -1.6748 H         1 UNK         0.2993 
    100 H100       25.3580   22.0172   -2.5467 H         1 UNK         0.0949 
    101 H101       26.7040   20.2888   -3.7199 H         1 UNK         0.0767 
    102 H102       26.5347   21.7099   -4.7358 H         1 UNK         0.0767 
    103 H103       28.0505   21.4161   -3.8944 H         1 UNK         0.0767 
    104 H104       27.7234   20.8866   -1.4770 H         1 UNK         0.3013 
    105 H105       28.5539   28.1985    0.4450 H         1 UNK         0.3121 
    106 H106       29.2013   29.9117   -0.7708 H         1 UNK         0.0774 
    107 H107       31.6682   30.2752   -0.9072 H         1 UNK         0.0815 
    108 H108       31.8927   29.4433    0.6338 H         1 UNK         0.0815 
    109 H109       31.2941   28.5715   -0.7675 H         1 UNK         0.0815 
    110 H110       31.6192   31.5074    0.8414 H         1 UNK         0.2987 
    111 H111       30.0086   33.8447    1.4926 H         1 UNK         0.0949 
    112 H112       32.2404   34.8231    2.0365 H         1 UNK         0.0806 
    113 H113       33.0018   33.2554    1.8131 H         1 UNK         0.0806 
    114 H114       32.2479   34.0771    0.4476 H         1 UNK         0.0806 
    115 H115       28.7372   32.3413    2.9926 H         1 UNK         0.3010 
    116 H116       27.9543   31.8571    5.0346 H         1 UNK         0.0829 
    117 H117       27.8865   34.3575    5.0399 H         1 UNK         0.0813 
    118 H118       28.0849   33.7251    6.6641 H         1 UNK         0.0813 
    119 H119       29.4683   34.4054    5.8176 H         1 UNK         0.0813 
    120 H120       30.1783   30.2797    4.5326 H         1 UNK         0.3038 
    121 H121       31.4773   28.7911    5.4171 H         1 UNK         0.0769 
    122 H122       31.3342   28.0889    7.7557 H         1 UNK         0.0811 
    123 H123       29.7197   28.4893    7.1968 H         1 UNK         0.0811 
    124 H124       30.6029   29.6102    8.2316 H         1 UNK         0.0811 
    125 H125       32.3100   31.9026    5.4363 H         1 UNK         0.3204 
    126 H126       34.9378   31.5807    6.7428 H         1 UNK         0.0748 
    127 H127       35.3880   33.8164    5.8608 H         1 UNK         0.0771 
    128 H128       33.9425   33.7901    4.8667 H         1 UNK         0.0771 
    129 H129       33.8059   33.8309    6.6241 H         1 UNK         0.0771 
    130 H130       33.4052   30.9907    3.6749 H         1 UNK         0.2980 
    131 H131       33.9629   30.0250    1.8030 H         1 UNK         0.0545 
    132 H132       35.3510   32.8439    2.4217 H         1 UNK         0.3459 
    133 H133       36.3320   32.9948    0.9855 H         1 UNK         0.3459 
    134 H134       35.7843   28.3423    1.6851 H         1 UNK         0.0616 
    135 H135       36.4878   28.9654    3.1497 H         1 UNK         0.0616 
    136 H136       34.3182   26.3885    1.6126 H         1 UNK         0.0634 
    137 H137       33.0070   27.5430    1.7379 H         1 UNK         0.0634 
@<TRIPOS>BOND
     1    1    2 1    
     2    1   72 1    
     3    1   73 1    
     4    1   74 1    
     5    2    3 2    
     6    2    4 am   BACKBONE|DICT|INTERRES
     7    4    5 1    
     8    4   75 1    
     9    5    6 1    
    10    5   35 1    
    11    5   76 1    
    12    6    7 1    
    13    6   77 1    
    14    6   78 1    
    15    7    8 1    
    16    8    9 1    
    17    8   79 1    
    18    8   80 1    
    19    9   10 ar   
    20    9   14 ar   
    21   10   11 ar   
    22   10   81 1    
    23   11   12 ar   
    24   11   71 1    
    25   12   13 ar   
    26   12   82 1    
    27   13   14 ar   
    28   13   15 1    
    29   14   83 1    
    30   15   16 1    
    31   15   84 1    
    32   15   85 1    
    33   16   17 1    
    34   17   18 1    
    35   17   86 1    
    36   17   87 1    
    37   18   19 1    
    38   18   37 1    
    39   18   88 1    
    40   19   20 am   BACKBONE|DICT|INTERRES
    41   19   89 1    
    42   20   21 2    
    43   20   22 1    
    44   22   23 1    
    45   22   24 1    
    46   22   90 1    
    47   23   91 1    
    48   23   92 1    
    49   23   93 1    
    50   24   25 am   BACKBONE|DICT|INTERRES
    51   24   94 1    
    52   25   26 2    
    53   25   27 1    
    54   27   28 1    
    55   27   29 1    
    56   27   95 1    
    57   28   96 1    
    58   28   97 1    
    59   28   98 1    
    60   29   30 am   BACKBONE|DICT|INTERRES
    61   29   99 1    
    62   30   31 2    
    63   30   32 1    
    64   32   33 1    
    65   32   34 1    
    66   32  100 1    
    67   33  101 1    
    68   33  102 1    
    69   33  103 1    
    70   34   35 am   BACKBONE|DICT|INTERRES
    71   34  104 1    
    72   35   36 2    
    73   37   38 2    
    74   37   39 am   BACKBONE|DICT|INTERRES
    75   39   40 1    
    76   39  105 1    
    77   40   41 1    
    78   40   42 1    
    79   40  106 1    
    80   41  107 1    
    81   41  108 1    
    82   41  109 1    
    83   42   43 2    
    84   42   44 am   BACKBONE|DICT|INTERRES
    85   44   45 1    
    86   44  110 1    
    87   45   46 1    
    88   45   47 1    
    89   45  111 1    
    90   46  112 1    
    91   46  113 1    
    92   46  114 1    
    93   47   48 2    
    94   47   49 am   BACKBONE|DICT|INTERRES
    95   49   50 1    
    96   49  115 1    
    97   50   51 1    
    98   50   52 1    
    99   50  116 1    
   100   51  117 1    
   101   51  118 1    
   102   51  119 1    
   103   52   53 2    
   104   52   54 am   BACKBONE|DICT|INTERRES
   105   54   55 1    
   106   54  120 1    
   107   55   56 1    
   108   55   57 1    
   109   55  121 1    
   110   56  122 1    
   111   56  123 1    
   112   56  124 1    
   113   57   58 2    
   114   57   59 am   BACKBONE|DICT|INTERRES
   115   59   60 1    
   116   59  125 1    
   117   60   61 1    
   118   60   62 1    
   119   60  126 1    
   120   61  127 1    
   121   61  128 1    
   122   61  129 1    
   123   62   63 2    
   124   62   64 am   BACKBONE|DICT|INTERRES
   125   64   65 1    
   126   64  130 1    
   127   65   66 1    
   128   65   69 1    
   129   65  131 1    
   130   66   67 am   BACKBONE|DICT|INTERRES
   131   66   68 2    
   132   67  132 1    
   133   67  133 1    
   134   69   70 1    
   135   69  134 1    
   136   69  135 1    
   137   70   71 1    
   138   71  136 1    
   139   71  137 1    
@<TRIPOS>SUBSTRUCTURE
     1 UNK         1 GROUP             0       ****    0 ROOT    
