@<TRIPOS>MOLECULE
3R136
137   139    1
SMALL
USER_CHARGES


@<TRIPOS>ATOM
      1 CA         31.8792   22.3120   -5.0648 C.3       0 UNK        -0.1979 
      2 C          31.4923   22.8851   -3.7092 C.2       0 UNK         0.4864 
      3 O          32.3482   23.0145   -2.8328 O.2       0 UNK        -0.5359 
      4 N          30.2131   23.2298   -3.5318 N.am      1 UNK        -0.4318 
      5 CA         29.6531   23.8292   -2.3233 C.3       1 UNK         0.0824 
      6 C6         29.4385   22.7885   -1.1890 C.3       12 UNK        -0.0944 
      7 S7         29.3932   23.5639    0.4620 S.3       12 UNK        -0.2672 
      8 C8         31.0513   23.1626    1.0849 C.3       12 UNK         0.0333 
      9 C9         31.2991   23.8469    2.4187 C.ar      12 UNK        -0.0807 
     10 C10        32.0425   25.0287    2.4768 C.ar      12 UNK        -0.0894 
     11 C11        32.2592   25.6731    3.6982 C.ar      12 UNK        -0.0804 
     12 C12        31.7342   25.1182    4.8697 C.ar      12 UNK        -0.0824 
     13 C13        30.9776   23.9426    4.8219 C.ar      12 UNK        -0.0762 
     14 C14        30.7714   23.3064    3.5946 C.ar      12 UNK        -0.0782 
     15 C15        30.3665   23.3655    6.0909 C.3       12 UNK         0.0230 
     16 S16        28.5715   23.6740    6.1796 S.3       12 UNK        -0.2608 
     17 C17        28.5134   25.4951    6.2797 C.3       12 UNK        -0.0989 
     18 CA         28.0932   26.1456    4.9348 C.3       5 UNK         0.0716 
     19 N          26.7205   25.7814    4.5625 N.am      5 UNK        -0.4135 
     20 C          26.1731   25.9117    3.3477 C.2       4 UNK         0.5031 
     21 O          26.7847   26.3287    2.3579 O.2       4 UNK        -0.5229 
     22 CA         24.6856   25.5534    3.2299 C.3       4 UNK         0.0329 
     23 CB         23.8056   26.5281    4.0369 C.3       4 UNK        -0.2001 
     24 N          24.3073   25.6065    1.8222 N.am      4 UNK        -0.4303 
     25 C          23.3140   24.9272    1.2392 C.2       3 UNK         0.5044 
     26 O          22.5488   24.1807    1.8516 O.2       3 UNK        -0.5152 
     27 CA         23.1233   25.1111   -0.2820 C.3       3 UNK         0.0319 
     28 CB         21.8580   25.9377   -0.5671 C.3       3 UNK        -0.2001 
     29 N          24.2623   25.7387   -0.9647 N.am      3 UNK        -0.4354 
     30 C          25.4600   25.1641   -1.1400 C.2       2 UNK         0.4964 
     31 O          25.7181   24.0162   -0.7700 O.2       2 UNK        -0.5047 
     32 CA         26.5378   26.0226   -1.8301 C.3       2 UNK         0.0288 
     33 CB         26.6828   27.4113   -1.1758 C.3       2 UNK        -0.2113 
     34 N          27.8321   25.3487   -1.7614 N.am      2 UNK        -0.4145 
     35 C          28.3536   24.5620   -2.7069 C.2       1 UNK         0.5006 
     36 O          27.8553   24.3968   -3.8257 O.2       1 UNK        -0.5103 
     37 C          28.2793   27.6802    4.9540 C.2       5 UNK         0.5055 
     38 O          28.4545   28.2704    6.0207 O.2       5 UNK        -0.5220 
     39 N          28.2162   28.2933    3.7692 N.am      6 UNK        -0.4450 
     40 CA         28.4443   29.7138    3.5081 C.3       6 UNK         0.0367 
     41 CB         27.1754   30.5259    3.8350 C.3       6 UNK        -0.1929 
     42 C          28.9239   29.9058    2.0583 C.2       6 UNK         0.5070 
     43 O          28.5961   30.9101    1.4256 O.2       6 UNK        -0.5237 
     44 N          29.6640   28.9164    1.5390 N.am      7 UNK        -0.4739 
     45 CA         30.1220   28.8526    0.1493 C.3       7 UNK         0.0276 
     46 CB         30.3879   27.3814   -0.2074 C.3       7 UNK        -0.1927 
     47 C          31.3728   29.7034   -0.1345 C.2       7 UNK         0.5013 
     48 O          31.6739   29.9441   -1.3045 O.2       7 UNK        -0.5193 
     49 N          32.0887   30.1235    0.9143 N.am      8 UNK        -0.4253 
     50 CA         33.3207   30.9030    0.8405 C.3       8 UNK         0.0242 
     51 CB         34.5223   29.9441    0.7459 C.3       8 UNK        -0.2000 
     52 C          33.4299   31.7880    2.0847 C.2       8 UNK         0.4948 
     53 O          32.7561   31.5273    3.0840 O.2       8 UNK        -0.5275 
     54 N          34.3248   32.7840    2.0348 N.am      9 UNK        -0.4246 
     55 CA         34.6092   33.7227    3.1312 C.3       9 UNK         0.0261 
     56 CB         35.6001   34.7893    2.6366 C.3       9 UNK        -0.1959 
     57 C          35.1293   33.0646    4.4263 C.2       9 UNK         0.5033 
     58 O          35.0297   33.6720    5.4929 O.2       9 UNK        -0.5390 
     59 N          35.6515   31.8353    4.3167 N.am      10 UNK        -0.4215 
     60 CA         36.0602   30.9821    5.4334 C.3       10 UNK         0.0240 
     61 CB         36.8872   29.8085    4.8816 C.3       10 UNK        -0.1982 
     62 C          34.8856   30.4524    6.2809 C.2       10 UNK         0.4970 
     63 O          35.1253   30.0339    7.4146 O.2       10 UNK        -0.4916 
     64 N          33.6630   30.4600    5.7336 N.am      11 UNK        -0.4279 
     65 CA         32.4418   29.9619    6.3849 C.3       11 UNK         0.1003 
     66 C          31.2526   30.9595    6.3260 C.2       11 UNK         0.5709 
     67 N          31.1630   31.8379    5.3353 N.am      11 UNK        -0.7358 
     68 O          30.4153   30.9666    7.2248 O.2       11 UNK        -0.4999 
     69 C69        32.0548   28.5415    5.8908 C.3       12 UNK        -0.0954 
     70 S70        31.9632   28.3930    4.0690 S.3       12 UNK        -0.2268 
     71 C71        33.0508   26.9721    3.7429 C.3       12 UNK         0.0203 
     72 H72        31.0255   22.2506   -5.7397 H         1 UNK         0.0888 
     73 H73        32.6382   22.9374   -5.5339 H         1 UNK         0.0888 
     74 H74        32.2890   21.3095   -4.9449 H         1 UNK         0.0888 
     75 H75        29.5448   23.1591   -4.2906 H         1 UNK         0.3017 
     76 H76        30.3605   24.5905   -1.9856 H         1 UNK         0.0873 
     77 H77        28.5172   22.2225   -1.3413 H         1 UNK         0.0745 
     78 H78        30.2380   22.0461   -1.1934 H         1 UNK         0.0745 
     79 H79        31.7988   23.4698    0.3512 H         1 UNK         0.0705 
     80 H80        31.1485   22.0816    1.1965 H         1 UNK         0.0705 
     81 H81        32.4505   25.4479    1.5680 H         1 UNK         0.1334 
     82 H82        31.8976   25.6144    5.8159 H         1 UNK         0.1417 
     83 H83        30.1803   22.4014    3.5515 H         1 UNK         0.1562 
     84 H84        30.8503   23.7760    6.9786 H         1 UNK         0.0748 
     85 H85        30.5417   22.2890    6.1198 H         1 UNK         0.0748 
     86 H86        29.4902   25.8622    6.5999 H         1 UNK         0.0940 
     87 H87        27.8197   25.7756    7.0745 H         1 UNK         0.0940 
     88 H88        28.7621   25.7634    4.1599 H         1 UNK         0.0703 
     89 H89        26.1441   25.4370    5.3160 H         1 UNK         0.3081 
     90 H90        24.5522   24.5356    3.6027 H         1 UNK         0.0719 
     91 H91        24.0407   26.4921    5.1010 H         1 UNK         0.0809 
     92 H92        22.7479   26.2837    3.9365 H         1 UNK         0.0809 
     93 H93        23.9418   27.5587    3.7061 H         1 UNK         0.0809 
     94 H94        24.9457   26.1408    1.2464 H         1 UNK         0.2990 
     95 H95        22.9825   24.1160   -0.7092 H         1 UNK         0.0690 
     96 H96        21.6607   26.0073   -1.6371 H         1 UNK         0.0788 
     97 H97        21.9405   26.9511   -0.1722 H         1 UNK         0.0788 
     98 H98        20.9801   25.4803   -0.1082 H         1 UNK         0.0788 
     99 H99        24.1223   26.6818   -1.2981 H         1 UNK         0.2993 
    100 H100       26.2405   26.1550   -2.8727 H         1 UNK         0.0949 
    101 H101       25.7686   27.9989   -1.2622 H         1 UNK         0.0767 
    102 H102       26.9296   27.3384   -0.1162 H         1 UNK         0.0767 
    103 H103       27.4718   27.9880   -1.6588 H         1 UNK         0.0767 
    104 H104       28.2554   25.3083   -0.8437 H         1 UNK         0.3013 
    105 H105       27.9541   27.7251    2.9656 H         1 UNK         0.3121 
    106 H106       29.2544   30.0610    4.1514 H         1 UNK         0.0774 
    107 H107       27.3401   31.5923    3.6767 H         1 UNK         0.0815 
    108 H108       26.3359   30.2250    3.2074 H         1 UNK         0.0815 
    109 H109       26.8792   30.3993    4.8763 H         1 UNK         0.0815 
    110 H110       29.9380   28.1534    2.1425 H         1 UNK         0.2987 
    111 H111       29.3225   29.2233   -0.4958 H         1 UNK         0.0949 
    112 H112       29.5348   26.7516    0.0410 H         1 UNK         0.0806 
    113 H113       30.5814   27.2675   -1.2748 H         1 UNK         0.0806 
    114 H114       31.2554   26.9920    0.3242 H         1 UNK         0.0806 
    115 H115       31.7540   29.9447    1.8534 H         1 UNK         0.3010 
    116 H116       33.2933   31.5527   -0.0370 H         1 UNK         0.0829 
    117 H117       34.4506   29.3065   -0.1355 H         1 UNK         0.0813 
    118 H118       35.4632   30.4901    0.6695 H         1 UNK         0.0813 
    119 H119       34.5880   29.2953    1.6205 H         1 UNK         0.0813 
    120 H120       34.8463   32.9230    1.1805 H         1 UNK         0.3038 
    121 H121       33.6704   34.2198    3.3847 H         1 UNK         0.0769 
    122 H122       36.5531   34.3491    2.3405 H         1 UNK         0.0811 
    123 H123       35.8088   35.5215    3.4182 H         1 UNK         0.0811 
    124 H124       35.2016   35.3375    1.7827 H         1 UNK         0.0811 
    125 H125       35.7050   31.4297    3.3945 H         1 UNK         0.3204 
    126 H126       36.6982   31.5729    6.0941 H         1 UNK         0.0748 
    127 H127       37.2441   29.1679    5.6895 H         1 UNK         0.0771 
    128 H128       36.3009   29.1836    4.2062 H         1 UNK         0.0771 
    129 H129       37.7652   30.1603    4.3394 H         1 UNK         0.0771 
    130 H130       33.5324   30.8287    4.7984 H         1 UNK         0.2980 
    131 H131       32.6431   29.8659    7.4535 H         1 UNK         0.0545 
    132 H132       31.7941   31.7962    4.5379 H         1 UNK         0.3459 
    133 H133       30.4014   32.4958    5.3350 H         1 UNK         0.3459 
    134 H134       31.1025   28.2260    6.3181 H         1 UNK         0.0616 
    135 H135       32.7891   27.8325    6.2732 H         1 UNK         0.0616 
    136 H136       33.8440   26.9087    4.4887 H         1 UNK         0.0634 
    137 H137       33.5509   27.1428    2.7885 H         1 UNK         0.0634 
@<TRIPOS>BOND
     1    1    2 1    
     2    1   72 1    
     3    1   73 1    
     4    1   74 1    
     5    2    3 2    
     6    2    4 am   BACKBONE|DICT|INTERRES
     7    4    5 1    
     8    4   75 1    
     9    5    6 1    
    10    5   35 1    
    11    5   76 1    
    12    6    7 1    
    13    6   77 1    
    14    6   78 1    
    15    7    8 1    
    16    8    9 1    
    17    8   79 1    
    18    8   80 1    
    19    9   10 ar   
    20    9   14 ar   
    21   10   11 ar   
    22   10   81 1    
    23   11   12 ar   
    24   11   71 1    
    25   12   13 ar   
    26   12   82 1    
    27   13   14 ar   
    28   13   15 1    
    29   14   83 1    
    30   15   16 1    
    31   15   84 1    
    32   15   85 1    
    33   16   17 1    
    34   17   18 1    
    35   17   86 1    
    36   17   87 1    
    37   18   19 1    
    38   18   37 1    
    39   18   88 1    
    40   19   20 am   BACKBONE|DICT|INTERRES
    41   19   89 1    
    42   20   21 2    
    43   20   22 1    
    44   22   23 1    
    45   22   24 1    
    46   22   90 1    
    47   23   91 1    
    48   23   92 1    
    49   23   93 1    
    50   24   25 am   BACKBONE|DICT|INTERRES
    51   24   94 1    
    52   25   26 2    
    53   25   27 1    
    54   27   28 1    
    55   27   29 1    
    56   27   95 1    
    57   28   96 1    
    58   28   97 1    
    59   28   98 1    
    60   29   30 am   BACKBONE|DICT|INTERRES
    61   29   99 1    
    62   30   31 2    
    63   30   32 1    
    64   32   33 1    
    65   32   34 1    
    66   32  100 1    
    67   33  101 1    
    68   33  102 1    
    69   33  103 1    
    70   34   35 am   BACKBONE|DICT|INTERRES
    71   34  104 1    
    72   35   36 2    
    73   37   38 2    
    74   37   39 am   BACKBONE|DICT|INTERRES
    75   39   40 1    
    76   39  105 1    
    77   40   41 1    
    78   40   42 1    
    79   40  106 1    
    80   41  107 1    
    81   41  108 1    
    82   41  109 1    
    83   42   43 2    
    84   42   44 am   BACKBONE|DICT|INTERRES
    85   44   45 1    
    86   44  110 1    
    87   45   46 1    
    88   45   47 1    
    89   45  111 1    
    90   46  112 1    
    91   46  113 1    
    92   46  114 1    
    93   47   48 2    
    94   47   49 am   BACKBONE|DICT|INTERRES
    95   49   50 1    
    96   49  115 1    
    97   50   51 1    
    98   50   52 1    
    99   50  116 1    
   100   51  117 1    
   101   51  118 1    
   102   51  119 1    
   103   52   53 2    
   104   52   54 am   BACKBONE|DICT|INTERRES
   105   54   55 1    
   106   54  120 1    
   107   55   56 1    
   108   55   57 1    
   109   55  121 1    
   110   56  122 1    
   111   56  123 1    
   112   56  124 1    
   113   57   58 2    
   114   57   59 am   BACKBONE|DICT|INTERRES
   115   59   60 1    
   116   59  125 1    
   117   60   61 1    
   118   60   62 1    
   119   60  126 1    
   120   61  127 1    
   121   61  128 1    
   122   61  129 1    
   123   62   63 2    
   124   62   64 am   BACKBONE|DICT|INTERRES
   125   64   65 1    
   126   64  130 1    
   127   65   66 1    
   128   65   69 1    
   129   65  131 1    
   130   66   67 am   BACKBONE|DICT|INTERRES
   131   66   68 2    
   132   67  132 1    
   133   67  133 1    
   134   69   70 1    
   135   69  134 1    
   136   69  135 1    
   137   70   71 1    
   138   71  136 1    
   139   71  137 1    
@<TRIPOS>SUBSTRUCTURE
     1 UNK         1 GROUP             0       ****    0 ROOT    
