@<TRIPOS>MOLECULE
3R136
137   139    1
SMALL
USER_CHARGES


@<TRIPOS>ATOM
      1 CA         25.2764   23.5855   -2.6214 C.3       0 UNK        -0.1979 
      2 C          26.6767   23.0412   -2.3801 C.2       0 UNK         0.4864 
      3 O          27.4831   22.9913   -3.3096 O.2       0 UNK        -0.5359 
      4 N          26.9707   22.6290   -1.1400 N.am      1 UNK        -0.4318 
      5 CA         28.2898   22.1668   -0.7023 C.3       1 UNK         0.0824 
      6 C6         28.1874   21.3780    0.6269 C.3       12 UNK        -0.0944 
      7 S7         29.4911   20.1163    0.8390 S.3       12 UNK        -0.2672 
      8 C8         30.9504   21.0653    1.4084 C.3       12 UNK         0.0333 
      9 C9         30.7608   21.9344    2.6534 C.ar      12 UNK        -0.0807 
     10 C10        31.6520   22.9902    2.8694 C.ar      12 UNK        -0.0894 
     11 C11        31.5232   23.8225    3.9840 C.ar      12 UNK        -0.0804 
     12 C12        30.4963   23.5870    4.9021 C.ar      12 UNK        -0.0824 
     13 C13        29.5812   22.5492    4.6910 C.ar      12 UNK        -0.0762 
     14 C14        29.7396   21.7098    3.5851 C.ar      12 UNK        -0.0782 
     15 C15        28.4093   22.3311    5.6409 C.3       12 UNK         0.0230 
     16 S16        27.4213   23.8397    5.9218 S.3       12 UNK        -0.2608 
     17 C17        26.8431   24.3083    4.2456 C.3       12 UNK        -0.0989 
     18 CA         27.7453   25.3689    3.5523 C.3       5 UNK         0.0716 
     19 N          27.4094   25.5915    2.1442 N.am      5 UNK        -0.4135 
     20 C          26.3487   26.2470    1.6539 C.2       4 UNK         0.5031 
     21 O          25.4078   26.6489    2.3405 O.2       4 UNK        -0.5229 
     22 CA         26.3545   26.5061    0.1302 C.3       4 UNK         0.0329 
     23 CB         25.2639   27.5042   -0.3090 C.3       4 UNK        -0.2001 
     24 N          27.6567   26.9279   -0.4096 N.am      4 UNK        -0.4303 
     25 C          28.4589   27.9091    0.0320 C.2       3 UNK         0.5044 
     26 O          28.2304   28.5881    1.0331 O.2       3 UNK        -0.5152 
     27 CA         29.7566   28.1482   -0.7654 C.3       3 UNK         0.0319 
     28 CB         30.6267   29.2539   -0.1453 C.3       3 UNK        -0.2001 
     29 N          30.5468   26.9208   -0.8682 N.am      3 UNK        -0.4354 
     30 C          30.3478   25.9599   -1.7787 C.2       2 UNK         0.4964 
     31 O          29.5281   26.0566   -2.6937 O.2       2 UNK        -0.5047 
     32 CA         31.1282   24.6404   -1.6116 C.3       2 UNK         0.0288 
     33 CB         32.1462   24.6465   -0.4475 C.3       2 UNK        -0.2113 
     34 N          30.2026   23.5068   -1.4804 N.am      2 UNK        -0.4145 
     35 C          29.2242   23.3839   -0.5696 C.2       1 UNK         0.5006 
     36 O          29.0163   24.1968    0.3352 O.2       1 UNK        -0.5103 
     37 C          27.8822   26.7073    4.3160 C.2       5 UNK         0.5055 
     38 O          27.0495   27.0402    5.1625 O.2       5 UNK        -0.5220 
     39 N          28.9527   27.4422    3.9839 N.am      6 UNK        -0.4450 
     40 CA         29.4115   28.6820    4.6179 C.3       6 UNK         0.0367 
     41 CB         29.9369   28.3992    6.0409 C.3       6 UNK        -0.1929 
     42 C          28.3938   29.8370    4.5619 C.2       6 UNK         0.5070 
     43 O          28.2448   30.5763    5.5369 O.2       6 UNK        -0.5237 
     44 N          27.7348   30.0008    3.4061 N.am      7 UNK        -0.4739 
     45 CA         26.9282   31.1829    3.0890 C.3       7 UNK         0.0276 
     46 CB         25.9825   30.8668    1.9199 C.3       7 UNK        -0.1927 
     47 C          27.8148   32.3988    2.7632 C.2       7 UNK         0.5013 
     48 O          27.4073   33.5311    3.0259 O.2       7 UNK        -0.5193 
     49 N          29.0158   32.1382    2.2281 N.am      8 UNK        -0.4253 
     50 CA         30.0989   33.1092    2.0900 C.3       8 UNK         0.0242 
     51 CB         30.8594   32.8488    0.7796 C.3       8 UNK        -0.2000 
     52 C          31.0514   32.9665    3.2845 C.2       8 UNK         0.4948 
     53 O          31.2201   31.8587    3.8067 O.2       8 UNK        -0.5275 
     54 N          31.6828   34.0831    3.6702 N.am      9 UNK        -0.4246 
     55 CA         32.6679   34.1580    4.7512 C.3       9 UNK         0.0261 
     56 CB         33.1110   35.6180    4.9423 C.3       9 UNK        -0.1959 
     57 C          33.8791   33.2501    4.4795 C.2       9 UNK         0.5033 
     58 O          34.4788   33.3464    3.4067 O.2       9 UNK        -0.5390 
     59 N          34.1879   32.3836    5.4534 N.am      10 UNK        -0.4215 
     60 CA         35.2246   31.3432    5.4268 C.3       10 UNK         0.0240 
     61 CB         36.6339   31.9554    5.2660 C.3       10 UNK        -0.1982 
     62 C          34.9572   30.1960    4.4271 C.2       10 UNK         0.4970 
     63 O          35.8820   29.4329    4.1418 O.2       10 UNK        -0.4916 
     64 N          33.7084   30.0522    3.9557 N.am      11 UNK        -0.4279 
     65 CA         33.2549   28.9846    3.0509 C.3       11 UNK         0.1003 
     66 C          33.9051   29.0543    1.6343 C.2       11 UNK         0.5709 
     67 N          33.9834   27.9441    0.9122 N.am      11 UNK        -0.7358 
     68 O          34.2879   30.1205    1.1572 O.2       11 UNK        -0.4999 
     69 C69        33.3219   27.5854    3.7382 C.3       12 UNK        -0.0954 
     70 S70        32.0611   26.4076    3.1505 S.3       12 UNK        -0.2268 
     71 C71        32.4918   24.9764    4.1897 C.3       12 UNK         0.0203 
     72 H72        24.7790   23.0091   -3.4010 H         1 UNK         0.0888 
     73 H73        24.6602   23.5424   -1.7234 H         1 UNK         0.0888 
     74 H74        25.3296   24.6243   -2.9467 H         1 UNK         0.0888 
     75 H75        26.2701   22.6964   -0.4161 H         1 UNK         0.3017 
     76 H76        28.6786   21.4970   -1.4729 H         1 UNK         0.0873 
     77 H77        28.1292   22.0398    1.4915 H         1 UNK         0.0745 
     78 H78        27.2501   20.8193    0.6434 H         1 UNK         0.0745 
     79 H79        31.7529   20.3555    1.6124 H         1 UNK         0.0705 
     80 H80        31.3006   21.6822    0.5805 H         1 UNK         0.0705 
     81 H81        32.4499   23.1723    2.1629 H         1 UNK         0.1334 
     82 H82        30.3837   24.2339    5.7616 H         1 UNK         0.1417 
     83 H83        29.0472   20.8925    3.4417 H         1 UNK         0.1562 
     84 H84        28.7954   21.9810    6.5990 H         1 UNK         0.0748 
     85 H85        27.7462   21.5471    5.2717 H         1 UNK         0.0748 
     86 H86        25.8205   24.6807    4.3274 H         1 UNK         0.0940 
     87 H87        26.7868   23.4092    3.6302 H         1 UNK         0.0940 
     88 H88        28.7475   24.9492    3.5052 H         1 UNK         0.0703 
     89 H89        28.0963   25.2428    1.4752 H         1 UNK         0.3081 
     90 H90        26.1293   25.5461   -0.3349 H         1 UNK         0.0719 
     91 H91        25.4234   28.4891    0.1297 H         1 UNK         0.0809 
     92 H92        24.2727   27.1663   -0.0043 H         1 UNK         0.0809 
     93 H93        25.2452   27.6198   -1.3926 H         1 UNK         0.0809 
     94 H94        27.9858   26.4115   -1.2173 H         1 UNK         0.2990 
     95 H95        29.4670   28.4789   -1.7650 H         1 UNK         0.0690 
     96 H96        31.5401   29.4153   -0.7182 H         1 UNK         0.0788 
     97 H97        30.9074   29.0174    0.8806 H         1 UNK         0.0788 
     98 H98        30.0817   30.1975   -0.1292 H         1 UNK         0.0788 
     99 H99        31.1974   26.7383   -0.1184 H         1 UNK         0.2993 
    100 H100       31.6810   24.4926   -2.5406 H         1 UNK         0.0949 
    101 H101       32.6867   23.7013   -0.3988 H         1 UNK         0.0767 
    102 H102       32.8930   25.4304   -0.5789 H         1 UNK         0.0767 
    103 H103       31.6647   24.7990    0.5187 H         1 UNK         0.0767 
    104 H104       30.2449   22.8250   -2.2253 H         1 UNK         0.3013 
    105 H105       29.5500   27.0933    3.2467 H         1 UNK         0.3121 
    106 H106       30.2599   29.0234    4.0269 H         1 UNK         0.0774 
    107 H107       30.3994   29.2888    6.4702 H         1 UNK         0.0815 
    108 H108       29.1354   28.0903    6.7126 H         1 UNK         0.0815 
    109 H109       30.6931   27.6141    6.0347 H         1 UNK         0.0815 
    110 H110       27.8993   29.3468    2.6406 H         1 UNK         0.2987 
    111 H111       26.3204   31.4350    3.9608 H         1 UNK         0.0949 
    112 H112       26.5304   30.6586    1.0004 H         1 UNK         0.0806 
    113 H113       25.3560   30.0024    2.1413 H         1 UNK         0.0806 
    114 H114       25.3184   31.7084    1.7191 H         1 UNK         0.0806 
    115 H115       29.2707   31.1682    2.1128 H         1 UNK         0.3010 
    116 H116       29.6919   34.1225    2.0657 H         1 UNK         0.0829 
    117 H117       30.1854   32.8219   -0.0768 H         1 UNK         0.0813 
    118 H118       31.5891   33.6377    0.5929 H         1 UNK         0.0813 
    119 H119       31.4102   31.9079    0.8107 H         1 UNK         0.0813 
    120 H120       31.5157   34.9366    3.1573 H         1 UNK         0.3038 
    121 H121       32.1718   33.8291    5.6670 H         1 UNK         0.0769 
    122 H122       32.2668   36.2618    5.1900 H         1 UNK         0.0811 
    123 H123       33.5866   36.0162    4.0449 H         1 UNK         0.0811 
    124 H124       33.8316   35.7031    5.7569 H         1 UNK         0.0811 
    125 H125       33.6149   32.3920    6.2869 H         1 UNK         0.3204 
    126 H126       35.1911   30.8763    6.4123 H         1 UNK         0.0748 
    127 H127       36.8045   32.7555    5.9862 H         1 UNK         0.0771 
    128 H128       37.4083   31.2051    5.4302 H         1 UNK         0.0771 
    129 H129       36.7883   32.3635    4.2668 H         1 UNK         0.0771 
    130 H130       33.0110   30.7534    4.1776 H         1 UNK         0.2980 
    131 H131       32.2073   29.2226    2.8768 H         1 UNK         0.0545 
    132 H132       34.3914   27.9823   -0.0080 H         1 UNK         0.3459 
    133 H133       33.6775   27.0666    1.3025 H         1 UNK         0.3459 
    134 H134       34.3144   27.1435    3.6326 H         1 UNK         0.0616 
    135 H135       33.1597   27.6953    4.8119 H         1 UNK         0.0616 
    136 H136       32.4987   25.2816    5.2373 H         1 UNK         0.0634 
    137 H137       33.5066   24.6520    3.9546 H         1 UNK         0.0634 
@<TRIPOS>BOND
     1    1    2 1    
     2    1   72 1    
     3    1   73 1    
     4    1   74 1    
     5    2    3 2    
     6    2    4 am   BACKBONE|DICT|INTERRES
     7    4    5 1    
     8    4   75 1    
     9    5    6 1    
    10    5   35 1    
    11    5   76 1    
    12    6    7 1    
    13    6   77 1    
    14    6   78 1    
    15    7    8 1    
    16    8    9 1    
    17    8   79 1    
    18    8   80 1    
    19    9   10 ar   
    20    9   14 ar   
    21   10   11 ar   
    22   10   81 1    
    23   11   12 ar   
    24   11   71 1    
    25   12   13 ar   
    26   12   82 1    
    27   13   14 ar   
    28   13   15 1    
    29   14   83 1    
    30   15   16 1    
    31   15   84 1    
    32   15   85 1    
    33   16   17 1    
    34   17   18 1    
    35   17   86 1    
    36   17   87 1    
    37   18   19 1    
    38   18   37 1    
    39   18   88 1    
    40   19   20 am   BACKBONE|DICT|INTERRES
    41   19   89 1    
    42   20   21 2    
    43   20   22 1    
    44   22   23 1    
    45   22   24 1    
    46   22   90 1    
    47   23   91 1    
    48   23   92 1    
    49   23   93 1    
    50   24   25 am   BACKBONE|DICT|INTERRES
    51   24   94 1    
    52   25   26 2    
    53   25   27 1    
    54   27   28 1    
    55   27   29 1    
    56   27   95 1    
    57   28   96 1    
    58   28   97 1    
    59   28   98 1    
    60   29   30 am   BACKBONE|DICT|INTERRES
    61   29   99 1    
    62   30   31 2    
    63   30   32 1    
    64   32   33 1    
    65   32   34 1    
    66   32  100 1    
    67   33  101 1    
    68   33  102 1    
    69   33  103 1    
    70   34   35 am   BACKBONE|DICT|INTERRES
    71   34  104 1    
    72   35   36 2    
    73   37   38 2    
    74   37   39 am   BACKBONE|DICT|INTERRES
    75   39   40 1    
    76   39  105 1    
    77   40   41 1    
    78   40   42 1    
    79   40  106 1    
    80   41  107 1    
    81   41  108 1    
    82   41  109 1    
    83   42   43 2    
    84   42   44 am   BACKBONE|DICT|INTERRES
    85   44   45 1    
    86   44  110 1    
    87   45   46 1    
    88   45   47 1    
    89   45  111 1    
    90   46  112 1    
    91   46  113 1    
    92   46  114 1    
    93   47   48 2    
    94   47   49 am   BACKBONE|DICT|INTERRES
    95   49   50 1    
    96   49  115 1    
    97   50   51 1    
    98   50   52 1    
    99   50  116 1    
   100   51  117 1    
   101   51  118 1    
   102   51  119 1    
   103   52   53 2    
   104   52   54 am   BACKBONE|DICT|INTERRES
   105   54   55 1    
   106   54  120 1    
   107   55   56 1    
   108   55   57 1    
   109   55  121 1    
   110   56  122 1    
   111   56  123 1    
   112   56  124 1    
   113   57   58 2    
   114   57   59 am   BACKBONE|DICT|INTERRES
   115   59   60 1    
   116   59  125 1    
   117   60   61 1    
   118   60   62 1    
   119   60  126 1    
   120   61  127 1    
   121   61  128 1    
   122   61  129 1    
   123   62   63 2    
   124   62   64 am   BACKBONE|DICT|INTERRES
   125   64   65 1    
   126   64  130 1    
   127   65   66 1    
   128   65   69 1    
   129   65  131 1    
   130   66   67 am   BACKBONE|DICT|INTERRES
   131   66   68 2    
   132   67  132 1    
   133   67  133 1    
   134   69   70 1    
   135   69  134 1    
   136   69  135 1    
   137   70   71 1    
   138   71  136 1    
   139   71  137 1    
@<TRIPOS>SUBSTRUCTURE
     1 UNK         1 GROUP             0       ****    0 ROOT    
