@<TRIPOS>MOLECULE
3R136
137   139    1
SMALL
USER_CHARGES


@<TRIPOS>ATOM
      1 CA         29.4188   20.5012    0.0866 C.3       0 UNK        -0.1979 
      2 C          28.9287   21.9406    0.0620 C.2       0 UNK         0.4864 
      3 O          27.8201   22.2136    0.5231 O.2       0 UNK        -0.5359 
      4 N          29.7385   22.8579   -0.4891 N.am      1 UNK        -0.4318 
      5 CA         29.5040   24.3117   -0.5564 C.3       1 UNK         0.0824 
      6 C6         29.6317   25.0087    0.8240 C.3       12 UNK        -0.0944 
      7 S7         31.2506   24.6866    1.6001 S.3       12 UNK        -0.2672 
      8 C8         30.7650   23.8494    3.1410 C.3       12 UNK         0.0333 
      9 C9         30.3898   24.8544    4.2199 C.ar      12 UNK        -0.0807 
     10 C10        31.3965   25.5689    4.8755 C.ar      12 UNK        -0.0894 
     11 C11        31.0793   26.4934    5.8733 C.ar      12 UNK        -0.0804 
     12 C12        29.7390   26.6987    6.2140 C.ar      12 UNK        -0.0824 
     13 C13        28.7192   25.9793    5.5813 C.ar      12 UNK        -0.0762 
     14 C14        29.0537   25.0552    4.5823 C.ar      12 UNK        -0.0782 
     15 C15        27.2766   26.1726    6.0472 C.3       12 UNK         0.0230 
     16 S16        26.0320   26.1539    4.7144 S.3       12 UNK        -0.2608 
     17 C17        26.4805   27.6356    3.7471 C.3       12 UNK        -0.0989 
     18 CA         26.8460   27.2691    2.2833 C.3       5 UNK         0.0716 
     19 N          25.7789   26.5599    1.5640 N.am      5 UNK        -0.4135 
     20 C          24.5732   27.0513    1.2366 C.2       4 UNK         0.5031 
     21 O          24.1662   28.1607    1.5844 O.2       4 UNK        -0.5229 
     22 CA         23.6658   26.1812    0.3515 C.3       4 UNK         0.0329 
     23 CB         23.2978   26.9232   -0.9467 C.3       4 UNK        -0.2001 
     24 N          24.2892   24.9066   -0.0083 N.am      4 UNK        -0.4303 
     25 C          23.7249   23.6979    0.1208 C.2       3 UNK         0.5044 
     26 O          22.6274   23.5096    0.6483 O.2       3 UNK        -0.5152 
     27 CA         24.5197   22.4926   -0.4291 C.3       3 UNK         0.0319 
     28 CB         23.6076   21.4050   -1.0356 C.3       3 UNK        -0.2001 
     29 N          25.5892   22.8722   -1.3634 N.am      3 UNK        -0.4354 
     30 C          25.4589   23.4873   -2.5525 C.2       2 UNK         0.4964 
     31 O          24.3722   23.7052   -3.0890 O.2       2 UNK        -0.5047 
     32 CA         26.7456   23.9768   -3.2524 C.3       2 UNK         0.0288 
     33 CB         26.5545   25.3725   -3.8843 C.3       2 UNK        -0.2113 
     34 N          27.9469   23.9555   -2.4049 N.am      2 UNK        -0.4145 
     35 C          28.1825   24.6545   -1.2820 C.2       1 UNK         0.5006 
     36 O          27.3930   25.4730   -0.7969 O.2       1 UNK        -0.5103 
     37 C          27.3461   28.4707    1.4523 C.2       5 UNK         0.5055 
     38 O          27.4584   29.5843    1.9661 O.2       5 UNK        -0.5220 
     39 N          27.6093   28.2153    0.1615 N.am      6 UNK        -0.4450 
     40 CA         28.0158   29.2114   -0.8346 C.3       6 UNK         0.0367 
     41 CB         27.7613   28.6329   -2.2368 C.3       6 UNK        -0.1929 
     42 C          29.4738   29.6947   -0.7010 C.2       6 UNK         0.5070 
     43 O          29.8548   30.6378   -1.3964 O.2       6 UNK        -0.5237 
     44 N          30.2706   29.0450    0.1578 N.am      7 UNK        -0.4739 
     45 CA         31.6524   29.4186    0.4653 C.3       7 UNK         0.0276 
     46 CB         32.3092   28.2787    1.2610 C.3       7 UNK        -0.1927 
     47 C          31.7435   30.7415    1.2485 C.2       7 UNK         0.5013 
     48 O          30.8030   31.1110    1.9566 O.2       7 UNK        -0.5193 
     49 N          32.8946   31.4147    1.1261 N.am      8 UNK        -0.4253 
     50 CA         33.2415   32.6124    1.8949 C.3       8 UNK         0.0242 
     51 CB         34.4901   33.2596    1.2719 C.3       8 UNK        -0.2000 
     52 C          33.4955   32.2765    3.3741 C.2       8 UNK         0.4948 
     53 O          33.8708   31.1458    3.6869 O.2       8 UNK        -0.5275 
     54 N          33.3531   33.2827    4.2487 N.am      9 UNK        -0.4246 
     55 CA         33.4646   33.1881    5.7141 C.3       9 UNK         0.0261 
     56 CB         33.1493   34.5650    6.3235 C.3       9 UNK        -0.1959 
     57 C          34.8023   32.6489    6.2669 C.2       9 UNK         0.5033 
     58 O          34.8707   32.3181    7.4513 O.2       9 UNK        -0.5390 
     59 N          35.8300   32.5523    5.4141 N.am      10 UNK        -0.4215 
     60 CA         37.1087   31.8963    5.6895 C.3       10 UNK         0.0240 
     61 CB         38.1233   32.3316    4.6178 C.3       10 UNK        -0.1982 
     62 C          37.0238   30.3555    5.7627 C.2       10 UNK         0.4970 
     63 O          38.0140   29.7377    6.1580 O.2       10 UNK        -0.4916 
     64 N          35.8871   29.7587    5.3677 N.am      11 UNK        -0.4279 
     65 CA         35.6151   28.3128    5.4178 C.3       11 UNK         0.1003 
     66 C          35.8030   27.6577    6.8188 C.2       11 UNK         0.5709 
     67 N          36.1227   26.3705    6.8582 N.am      11 UNK        -0.7358 
     68 O          35.6265   28.2844    7.8622 O.2       11 UNK        -0.4999 
     69 C69        34.2308   27.9694    4.7989 C.3       12 UNK        -0.0954 
     70 S70        32.7964   28.6760    5.6903 S.3       12 UNK        -0.2268 
     71 C71        32.1800   27.2364    6.6189 C.3       12 UNK         0.0203 
     72 H72        29.4746   20.1439    1.1145 H         1 UNK         0.0888 
     73 H73        28.7277   19.8604   -0.4602 H         1 UNK         0.0888 
     74 H74        30.4065   20.3981   -0.3624 H         1 UNK         0.0888 
     75 H75        30.6334   22.5570   -0.8501 H         1 UNK         0.3017 
     76 H76        30.2925   24.7153   -1.1939 H         1 UNK         0.0873 
     77 H77        28.8288   24.6873    1.4888 H         1 UNK         0.0745 
     78 H78        29.5354   26.0892    0.7168 H         1 UNK         0.0745 
     79 H79        29.9497   23.1503    2.9475 H         1 UNK         0.0705 
     80 H80        31.6044   23.2463    3.4899 H         1 UNK         0.0705 
     81 H81        32.4287   25.3962    4.6071 H         1 UNK         0.1334 
     82 H82        29.4920   27.4037    6.9964 H         1 UNK         0.1417 
     83 H83        28.2756   24.4833    4.0955 H         1 UNK         0.1562 
     84 H84        27.1728   27.1093    6.5974 H         1 UNK         0.0748 
     85 H85        27.0365   25.3763    6.7527 H         1 UNK         0.0748 
     86 H86        27.3183   28.1414    4.2308 H         1 UNK         0.0940 
     87 H87        25.6474   28.3394    3.7790 H         1 UNK         0.0940 
     88 H88        27.6886   26.5804    2.3330 H         1 UNK         0.0703 
     89 H89        26.0209   25.6391    1.2289 H         1 UNK         0.3081 
     90 H90        22.7519   26.0090    0.9235 H         1 UNK         0.0719 
     91 H91        22.7898   27.8647   -0.7336 H         1 UNK         0.0809 
     92 H92        24.1825   27.1551   -1.5414 H         1 UNK         0.0809 
     93 H93        22.6266   26.3275   -1.5657 H         1 UNK         0.0809 
     94 H94        25.1894   24.9615   -0.4695 H         1 UNK         0.2990 
     95 H95        25.0224   22.0528    0.4334 H         1 UNK         0.0690 
     96 H96        24.1900   20.5655   -1.4151 H         1 UNK         0.0788 
     97 H97        23.0017   21.7924   -1.8551 H         1 UNK         0.0788 
     98 H98        22.9212   21.0083   -0.2866 H         1 UNK         0.0788 
     99 H99        26.5241   22.7430   -0.9892 H         1 UNK         0.2993 
    100 H100       26.9324   23.2690   -4.0616 H         1 UNK         0.0949 
    101 H101       26.2427   26.1100   -3.1448 H         1 UNK         0.0767 
    102 H102       27.4727   25.7296   -4.3506 H         1 UNK         0.0767 
    103 H103       25.7873   25.3502   -4.6592 H         1 UNK         0.0767 
    104 H104       28.6546   23.2904   -2.6862 H         1 UNK         0.3013 
    105 H105       27.4751   27.2669   -0.1820 H         1 UNK         0.3121 
    106 H106       27.3796   30.0904   -0.7112 H         1 UNK         0.0774 
    107 H107       28.3520   27.7339   -2.4163 H         1 UNK         0.0815 
    108 H108       26.7102   28.3793   -2.3734 H         1 UNK         0.0815 
    109 H109       28.0204   29.3539   -3.0133 H         1 UNK         0.0815 
    110 H110       29.8621   28.3171    0.7223 H         1 UNK         0.2987 
    111 H111       32.1867   29.5400   -0.4797 H         1 UNK         0.0949 
    112 H112       32.3108   27.3493    0.6921 H         1 UNK         0.0806 
    113 H113       33.3486   28.5124    1.4940 H         1 UNK         0.0806 
    114 H114       31.7978   28.0958    2.2077 H         1 UNK         0.0806 
    115 H115       33.6299   31.0190    0.5589 H         1 UNK         0.3010 
    116 H116       32.4071   33.3146    1.8332 H         1 UNK         0.0829 
    117 H117       35.3551   32.5963    1.3181 H         1 UNK         0.0813 
    118 H118       34.7581   34.1808    1.7911 H         1 UNK         0.0813 
    119 H119       34.3223   33.5193    0.2264 H         1 UNK         0.0813 
    120 H120       33.0779   34.1859    3.8891 H         1 UNK         0.3038 
    121 H121       32.6946   32.4871    6.0432 H         1 UNK         0.0769 
    122 H122       32.1523   34.9060    6.0441 H         1 UNK         0.0811 
    123 H123       33.8673   35.3209    6.0029 H         1 UNK         0.0811 
    124 H124       33.1802   34.5289    7.4136 H         1 UNK         0.0811 
    125 H125       35.6663   32.8359    4.4595 H         1 UNK         0.3204 
    126 H126       37.4662   32.2444    6.6609 H         1 UNK         0.0748 
    127 H127       37.8186   32.0118    3.6203 H         1 UNK         0.0771 
    128 H128       38.2447   33.4150    4.6019 H         1 UNK         0.0771 
    129 H129       39.1072   31.9017    4.8112 H         1 UNK         0.0771 
    130 H130       35.1267   30.3289    5.0107 H         1 UNK         0.2980 
    131 H131       36.3699   27.8634    4.7699 H         1 UNK         0.0545 
    132 H132       36.2374   25.9233    7.7542 H         1 UNK         0.3459 
    133 H133       36.2640   25.8399    6.0130 H         1 UNK         0.3459 
    134 H134       34.1171   26.8894    4.7102 H         1 UNK         0.0616 
    135 H135       34.1928   28.3449    3.7760 H         1 UNK         0.0616 
    136 H136       32.9993   26.5550    6.8512 H         1 UNK         0.0634 
    137 H137       31.8058   27.5883    7.5814 H         1 UNK         0.0634 
@<TRIPOS>BOND
     1    1    2 1    
     2    1   72 1    
     3    1   73 1    
     4    1   74 1    
     5    2    3 2    
     6    2    4 am   BACKBONE|DICT|INTERRES
     7    4    5 1    
     8    4   75 1    
     9    5    6 1    
    10    5   35 1    
    11    5   76 1    
    12    6    7 1    
    13    6   77 1    
    14    6   78 1    
    15    7    8 1    
    16    8    9 1    
    17    8   79 1    
    18    8   80 1    
    19    9   10 ar   
    20    9   14 ar   
    21   10   11 ar   
    22   10   81 1    
    23   11   12 ar   
    24   11   71 1    
    25   12   13 ar   
    26   12   82 1    
    27   13   14 ar   
    28   13   15 1    
    29   14   83 1    
    30   15   16 1    
    31   15   84 1    
    32   15   85 1    
    33   16   17 1    
    34   17   18 1    
    35   17   86 1    
    36   17   87 1    
    37   18   19 1    
    38   18   37 1    
    39   18   88 1    
    40   19   20 am   BACKBONE|DICT|INTERRES
    41   19   89 1    
    42   20   21 2    
    43   20   22 1    
    44   22   23 1    
    45   22   24 1    
    46   22   90 1    
    47   23   91 1    
    48   23   92 1    
    49   23   93 1    
    50   24   25 am   BACKBONE|DICT|INTERRES
    51   24   94 1    
    52   25   26 2    
    53   25   27 1    
    54   27   28 1    
    55   27   29 1    
    56   27   95 1    
    57   28   96 1    
    58   28   97 1    
    59   28   98 1    
    60   29   30 am   BACKBONE|DICT|INTERRES
    61   29   99 1    
    62   30   31 2    
    63   30   32 1    
    64   32   33 1    
    65   32   34 1    
    66   32  100 1    
    67   33  101 1    
    68   33  102 1    
    69   33  103 1    
    70   34   35 am   BACKBONE|DICT|INTERRES
    71   34  104 1    
    72   35   36 2    
    73   37   38 2    
    74   37   39 am   BACKBONE|DICT|INTERRES
    75   39   40 1    
    76   39  105 1    
    77   40   41 1    
    78   40   42 1    
    79   40  106 1    
    80   41  107 1    
    81   41  108 1    
    82   41  109 1    
    83   42   43 2    
    84   42   44 am   BACKBONE|DICT|INTERRES
    85   44   45 1    
    86   44  110 1    
    87   45   46 1    
    88   45   47 1    
    89   45  111 1    
    90   46  112 1    
    91   46  113 1    
    92   46  114 1    
    93   47   48 2    
    94   47   49 am   BACKBONE|DICT|INTERRES
    95   49   50 1    
    96   49  115 1    
    97   50   51 1    
    98   50   52 1    
    99   50  116 1    
   100   51  117 1    
   101   51  118 1    
   102   51  119 1    
   103   52   53 2    
   104   52   54 am   BACKBONE|DICT|INTERRES
   105   54   55 1    
   106   54  120 1    
   107   55   56 1    
   108   55   57 1    
   109   55  121 1    
   110   56  122 1    
   111   56  123 1    
   112   56  124 1    
   113   57   58 2    
   114   57   59 am   BACKBONE|DICT|INTERRES
   115   59   60 1    
   116   59  125 1    
   117   60   61 1    
   118   60   62 1    
   119   60  126 1    
   120   61  127 1    
   121   61  128 1    
   122   61  129 1    
   123   62   63 2    
   124   62   64 am   BACKBONE|DICT|INTERRES
   125   64   65 1    
   126   64  130 1    
   127   65   66 1    
   128   65   69 1    
   129   65  131 1    
   130   66   67 am   BACKBONE|DICT|INTERRES
   131   66   68 2    
   132   67  132 1    
   133   67  133 1    
   134   69   70 1    
   135   69  134 1    
   136   69  135 1    
   137   70   71 1    
   138   71  136 1    
   139   71  137 1    
@<TRIPOS>SUBSTRUCTURE
     1 UNK         1 GROUP             0       ****    0 ROOT    
