@<TRIPOS>MOLECULE
3R136
137   139    1
SMALL
USER_CHARGES


@<TRIPOS>ATOM
      1 CA         28.1645   29.6550   -0.7238 C.3       0 UNK        -0.1979 
      2 C          28.4553   28.2338   -0.2721 C.2       0 UNK         0.4864 
      3 O          27.5231   27.4721   -0.0025 O.2       0 UNK        -0.5359 
      4 N          29.7441   27.8768   -0.1911 N.am      1 UNK        -0.4318 
      5 CA         30.2500   26.5495    0.1751 C.3       1 UNK         0.0824 
      6 C6         31.8014   26.5672    0.2574 C.3       12 UNK        -0.0944 
      7 S7         32.5990   24.9354    0.4758 S.3       12 UNK        -0.2672 
      8 C8         32.9590   24.9112    2.2555 C.3       12 UNK         0.0333 
      9 C9         31.7000   24.9592    3.1086 C.ar      12 UNK        -0.0807 
     10 C10        31.4408   26.0787    3.9029 C.ar      12 UNK        -0.0894 
     11 C11        30.3530   26.0938    4.7793 C.ar      12 UNK        -0.0804 
     12 C12        29.4908   24.9952    4.8155 C.ar      12 UNK        -0.0824 
     13 C13        29.6969   23.8961    3.9752 C.ar      12 UNK        -0.0762 
     14 C14        30.8168   23.8746    3.1374 C.ar      12 UNK        -0.0782 
     15 C15        28.7206   22.7264    3.9888 C.3       12 UNK         0.0230 
     16 S16        27.3723   22.9407    2.7767 S.3       12 UNK        -0.2608 
     17 C17        26.4209   24.3157    3.5103 C.3       12 UNK        -0.0989 
     18 CA         26.6744   25.6371    2.7319 C.3       5 UNK         0.0716 
     19 N          25.9655   25.7215    1.4499 N.am      5 UNK        -0.4135 
     20 C          24.6383   25.8123    1.2715 C.2       4 UNK         0.5031 
     21 O          23.8068   25.6137    2.1577 O.2       4 UNK        -0.5229 
     22 CA         24.1470   26.2532   -0.1165 C.3       4 UNK         0.0329 
     23 CB         23.8505   27.7631   -0.1173 C.3       4 UNK        -0.2001 
     24 N          25.1255   25.9625   -1.1664 N.am      4 UNK        -0.4303 
     25 C          24.8782   25.2267   -2.2573 C.2       3 UNK         0.5044 
     26 O          23.7743   24.7659   -2.5509 O.2       3 UNK        -0.5152 
     27 CA         26.0828   24.9350   -3.1656 C.3       3 UNK         0.0319 
     28 CB         26.4390   26.1665   -4.0145 C.3       3 UNK        -0.2001 
     29 N          27.2610   24.5082   -2.4092 N.am      3 UNK        -0.4354 
     30 C          27.3635   23.3885   -1.6812 C.2       2 UNK         0.4964 
     31 O          26.4719   22.5434   -1.6018 O.2       2 UNK        -0.5047 
     32 CA         28.6730   23.1637   -0.9011 C.3       2 UNK         0.0288 
     33 CB         29.7319   22.4728   -1.7823 C.3       2 UNK        -0.2113 
     34 N          29.2235   24.3589   -0.2421 N.am      2 UNK        -0.4145 
     35 C          29.7166   25.4764   -0.7990 C.2       1 UNK         0.5006 
     36 O          29.7566   25.6891   -2.0142 O.2       1 UNK        -0.5103 
     37 C          26.4692   26.9331    3.5502 C.2       5 UNK         0.5055 
     38 O          26.3288   26.8917    4.7739 O.2       5 UNK        -0.5220 
     39 N          26.4691   28.0691    2.8373 N.am      6 UNK        -0.4450 
     40 CA         26.4602   29.4177    3.3976 C.3       6 UNK         0.0367 
     41 CB         25.7940   30.3716    2.3932 C.3       6 UNK        -0.1929 
     42 C          27.8981   29.8587    3.7078 C.2       6 UNK         0.5070 
     43 O          28.8423   29.3113    3.1326 O.2       6 UNK        -0.5237 
     44 N          28.0336   30.8398    4.6095 N.am      7 UNK        -0.4739 
     45 CA         29.2876   31.3420    5.1868 C.3       7 UNK         0.0276 
     46 CB         28.9495   32.1928    6.4257 C.3       7 UNK        -0.1927 
     47 C          30.2127   32.0848    4.1974 C.2       7 UNK         0.5013 
     48 O          30.5210   33.2619    4.3972 O.2       7 UNK        -0.5193 
     49 N          30.6573   31.3729    3.1578 N.am      8 UNK        -0.4253 
     50 CA         31.7398   31.7589    2.2536 C.3       8 UNK         0.0242 
     51 CB         31.6978   30.8315    1.0267 C.3       8 UNK        -0.2000 
     52 C          33.1085   31.6642    2.9522 C.2       8 UNK         0.4948 
     53 O          33.2293   31.0108    3.9905 O.2       8 UNK        -0.5275 
     54 N          34.1392   32.2608    2.3374 N.am      9 UNK        -0.4246 
     55 CA         35.5233   32.2886    2.8374 C.3       9 UNK         0.0261 
     56 CB         36.3833   33.1395    1.8883 C.3       9 UNK        -0.1959 
     57 C          36.1731   30.9051    3.0549 C.2       9 UNK         0.5033 
     58 O          37.1241   30.8032    3.8307 O.2       9 UNK        -0.5390 
     59 N          35.6494   29.8714    2.3825 N.am      10 UNK        -0.4215 
     60 CA         36.0456   28.4716    2.5429 C.3       10 UNK         0.0240 
     61 CB         35.5916   27.6861    1.3004 C.3       10 UNK        -0.1982 
     62 C          35.5093   27.8085    3.8290 C.2       10 UNK         0.4970 
     63 O          35.9984   26.7334    4.1780 O.2       10 UNK        -0.4916 
     64 N          34.5133   28.4142    4.4935 N.am      11 UNK        -0.4279 
     65 CA         33.9267   27.9147    5.7470 C.3       11 UNK         0.1003 
     66 C          34.9056   28.0071    6.9508 C.2       11 UNK         0.5709 
     67 N          34.8081   27.0886    7.9024 N.am      11 UNK        -0.7358 
     68 O          35.7259   28.9182    7.0477 O.2       11 UNK        -0.4999 
     69 C69        32.5744   28.6193    6.0450 C.3       12 UNK        -0.0954 
     70 S70        31.3874   27.5491    6.9300 S.3       12 UNK        -0.2268 
     71 C71        30.0893   27.2972    5.6748 C.3       12 UNK         0.0203 
     72 H72        28.3033   30.3486    0.1046 H         1 UNK         0.0888 
     73 H73        28.8264   29.9508   -1.5374 H         1 UNK         0.0888 
     74 H74        27.1373   29.7414   -1.0773 H         1 UNK         0.0888 
     75 H75        30.4480   28.5460   -0.4633 H         1 UNK         0.3017 
     76 H76        29.8628   26.3297    1.1723 H         1 UNK         0.0873 
     77 H77        32.1171   27.2298    1.0642 H         1 UNK         0.0745 
     78 H78        32.2146   26.9962   -0.6575 H         1 UNK         0.0745 
     79 H79        33.6274   25.7376    2.4986 H         1 UNK         0.0705 
     80 H80        33.5105   23.9994    2.4883 H         1 UNK         0.0705 
     81 H81        32.1033   26.9294    3.8566 H         1 UNK         0.1334 
     82 H82        28.6471   25.0060    5.4909 H         1 UNK         0.1417 
     83 H83        31.0068   23.0132    2.5109 H         1 UNK         0.1562 
     84 H84        28.2997   22.5918    4.9865 H         1 UNK         0.0748 
     85 H85        29.2511   21.8009    3.7602 H         1 UNK         0.0748 
     86 H86        26.6877   24.4006    4.5631 H         1 UNK         0.0940 
     87 H87        25.3632   24.0519    3.5104 H         1 UNK         0.0940 
     88 H88        27.7350   25.6677    2.4777 H         1 UNK         0.0703 
     89 H89        26.5546   26.0146    0.6785 H         1 UNK         0.3081 
     90 H90        23.2129   25.7190   -0.3032 H         1 UNK         0.0719 
     91 H91        23.1352   28.0235    0.6643 H         1 UNK         0.0809 
     92 H92        24.7519   28.3527    0.0544 H         1 UNK         0.0809 
     93 H93        23.4207   28.0796   -1.0677 H         1 UNK         0.0809 
     94 H94        26.0565   26.3414   -1.0397 H         1 UNK         0.2990 
     95 H95        25.8055   24.1216   -3.8394 H         1 UNK         0.0690 
     96 H96        26.7697   27.0035   -3.3978 H         1 UNK         0.0788 
     97 H97        25.5777   26.5051   -4.5921 H         1 UNK         0.0788 
     98 H98        27.2352   25.9402   -4.7240 H         1 UNK         0.0788 
     99 H99        28.0777   25.1155   -2.4337 H         1 UNK         0.2993 
    100 H100       28.4288   22.4738   -0.0915 H         1 UNK         0.0949 
    101 H101       29.3524   21.5302   -2.1790 H         1 UNK         0.0767 
    102 H102       30.0212   23.0890   -2.6342 H         1 UNK         0.0767 
    103 H103       30.6331   22.2460   -1.2123 H         1 UNK         0.0767 
    104 H104       29.2316   24.3030    0.7668 H         1 UNK         0.3013 
    105 H105       26.6861   28.0011    1.8499 H         1 UNK         0.3121 
    106 H106       25.8827   29.4220    4.3247 H         1 UNK         0.0774 
    107 H107       25.7581   31.3902    2.7814 H         1 UNK         0.0815 
    108 H108       26.3290   30.4036    1.4450 H         1 UNK         0.0815 
    109 H109       24.7671   30.0702    2.1857 H         1 UNK         0.0815 
    110 H110       27.1907   31.2517    4.9841 H         1 UNK         0.2987 
    111 H111       29.8573   30.4805    5.5398 H         1 UNK         0.0949 
    112 H112       28.3892   31.6176    7.1631 H         1 UNK         0.0806 
    113 H113       29.8569   32.5448    6.9186 H         1 UNK         0.0806 
    114 H114       28.3589   33.0714    6.1631 H         1 UNK         0.0806 
    115 H115       30.2780   30.4339    3.0550 H         1 UNK         0.3010 
    116 H116       31.5800   32.7910    1.9346 H         1 UNK         0.0829 
    117 H117       30.7403   30.9076    0.5123 H         1 UNK         0.0813 
    118 H118       32.4708   31.0912    0.3023 H         1 UNK         0.0813 
    119 H119       31.8463   29.7879    1.3074 H         1 UNK         0.0813 
    120 H120       33.9638   32.7645    1.4791 H         1 UNK         0.3038 
    121 H121       35.5023   32.7818    3.8115 H         1 UNK         0.0769 
    122 H122       36.0036   34.1586    1.8120 H         1 UNK         0.0811 
    123 H123       37.4116   33.2070    2.2468 H         1 UNK         0.0811 
    124 H124       36.4165   32.7153    0.8839 H         1 UNK         0.0811 
    125 H125       34.8793   30.0583    1.7582 H         1 UNK         0.3204 
    126 H126       37.1358   28.4271    2.5914 H         1 UNK         0.0748 
    127 H127       35.8747   26.6349    1.3730 H         1 UNK         0.0771 
    128 H128       34.5101   27.7241    1.1710 H         1 UNK         0.0771 
    129 H129       36.0512   28.0792    0.3934 H         1 UNK         0.0771 
    130 H130       34.1861   29.3268    4.1907 H         1 UNK         0.2980 
    131 H131       33.7282   26.8542    5.5794 H         1 UNK         0.0545 
    132 H132       34.1142   26.3593    7.8477 H         1 UNK         0.3459 
    133 H133       35.4244   27.1377    8.6983 H         1 UNK         0.3459 
    134 H134       32.7213   29.5374    6.6172 H         1 UNK         0.0616 
    135 H135       32.1057   28.9410    5.1151 H         1 UNK         0.0616 
    136 H136       29.9913   28.1879    5.0611 H         1 UNK         0.0634 
    137 H137       29.1343   27.1851    6.1905 H         1 UNK         0.0634 
@<TRIPOS>BOND
     1    1    2 1    
     2    1   72 1    
     3    1   73 1    
     4    1   74 1    
     5    2    3 2    
     6    2    4 am   BACKBONE|DICT|INTERRES
     7    4    5 1    
     8    4   75 1    
     9    5    6 1    
    10    5   35 1    
    11    5   76 1    
    12    6    7 1    
    13    6   77 1    
    14    6   78 1    
    15    7    8 1    
    16    8    9 1    
    17    8   79 1    
    18    8   80 1    
    19    9   10 ar   
    20    9   14 ar   
    21   10   11 ar   
    22   10   81 1    
    23   11   12 ar   
    24   11   71 1    
    25   12   13 ar   
    26   12   82 1    
    27   13   14 ar   
    28   13   15 1    
    29   14   83 1    
    30   15   16 1    
    31   15   84 1    
    32   15   85 1    
    33   16   17 1    
    34   17   18 1    
    35   17   86 1    
    36   17   87 1    
    37   18   19 1    
    38   18   37 1    
    39   18   88 1    
    40   19   20 am   BACKBONE|DICT|INTERRES
    41   19   89 1    
    42   20   21 2    
    43   20   22 1    
    44   22   23 1    
    45   22   24 1    
    46   22   90 1    
    47   23   91 1    
    48   23   92 1    
    49   23   93 1    
    50   24   25 am   BACKBONE|DICT|INTERRES
    51   24   94 1    
    52   25   26 2    
    53   25   27 1    
    54   27   28 1    
    55   27   29 1    
    56   27   95 1    
    57   28   96 1    
    58   28   97 1    
    59   28   98 1    
    60   29   30 am   BACKBONE|DICT|INTERRES
    61   29   99 1    
    62   30   31 2    
    63   30   32 1    
    64   32   33 1    
    65   32   34 1    
    66   32  100 1    
    67   33  101 1    
    68   33  102 1    
    69   33  103 1    
    70   34   35 am   BACKBONE|DICT|INTERRES
    71   34  104 1    
    72   35   36 2    
    73   37   38 2    
    74   37   39 am   BACKBONE|DICT|INTERRES
    75   39   40 1    
    76   39  105 1    
    77   40   41 1    
    78   40   42 1    
    79   40  106 1    
    80   41  107 1    
    81   41  108 1    
    82   41  109 1    
    83   42   43 2    
    84   42   44 am   BACKBONE|DICT|INTERRES
    85   44   45 1    
    86   44  110 1    
    87   45   46 1    
    88   45   47 1    
    89   45  111 1    
    90   46  112 1    
    91   46  113 1    
    92   46  114 1    
    93   47   48 2    
    94   47   49 am   BACKBONE|DICT|INTERRES
    95   49   50 1    
    96   49  115 1    
    97   50   51 1    
    98   50   52 1    
    99   50  116 1    
   100   51  117 1    
   101   51  118 1    
   102   51  119 1    
   103   52   53 2    
   104   52   54 am   BACKBONE|DICT|INTERRES
   105   54   55 1    
   106   54  120 1    
   107   55   56 1    
   108   55   57 1    
   109   55  121 1    
   110   56  122 1    
   111   56  123 1    
   112   56  124 1    
   113   57   58 2    
   114   57   59 am   BACKBONE|DICT|INTERRES
   115   59   60 1    
   116   59  125 1    
   117   60   61 1    
   118   60   62 1    
   119   60  126 1    
   120   61  127 1    
   121   61  128 1    
   122   61  129 1    
   123   62   63 2    
   124   62   64 am   BACKBONE|DICT|INTERRES
   125   64   65 1    
   126   64  130 1    
   127   65   66 1    
   128   65   69 1    
   129   65  131 1    
   130   66   67 am   BACKBONE|DICT|INTERRES
   131   66   68 2    
   132   67  132 1    
   133   67  133 1    
   134   69   70 1    
   135   69  134 1    
   136   69  135 1    
   137   70   71 1    
   138   71  136 1    
   139   71  137 1    
@<TRIPOS>SUBSTRUCTURE
     1 UNK         1 GROUP             0       ****    0 ROOT    
