@<TRIPOS>MOLECULE
3R136
137   139    1
SMALL
USER_CHARGES


@<TRIPOS>ATOM
      1 CA         31.8196   27.2895   -0.8503 C.3       0 UNK        -0.1979 
      2 C          30.7785   26.1832   -0.7975 C.2       0 UNK         0.4864 
      3 O          29.6036   26.4614   -0.5658 O.2       0 UNK        -0.5359 
      4 N          31.2003   24.9325   -1.0331 N.am      1 UNK        -0.4318 
      5 CA         30.3870   23.7099   -0.9257 C.3       1 UNK         0.0824 
      6 C6         31.2787   22.4450   -1.0617 C.3       12 UNK        -0.0944 
      7 S7         30.7376   21.0793    0.0199 S.3       12 UNK        -0.2672 
      8 C8         31.9349   21.1904    1.3885 C.3       12 UNK         0.0333 
      9 C9         31.6396   22.3663    2.3094 C.ar      12 UNK        -0.0807 
     10 C10        32.2850   23.5933    2.1253 C.ar      12 UNK        -0.0894 
     11 C11        32.0200   24.6707    2.9763 C.ar      12 UNK        -0.0804 
     12 C12        31.1155   24.5055    4.0295 C.ar      12 UNK        -0.0824 
     13 C13        30.4749   23.2803    4.2352 C.ar      12 UNK        -0.0762 
     14 C14        30.7334   22.2177    3.3637 C.ar      12 UNK        -0.0782 
     15 C15        29.5358   23.0860    5.4183 C.3       12 UNK         0.0230 
     16 S16        27.9081   23.8574    5.1492 S.3       12 UNK        -0.2608 
     17 C17        28.1909   25.5671    5.7285 C.3       12 UNK        -0.0989 
     18 CA         28.1315   26.6068    4.5826 C.3       5 UNK         0.0716 
     19 N          26.8405   26.5616    3.8814 N.am      5 UNK        -0.4135 
     20 C          26.5022   27.2961    2.8158 C.2       4 UNK         0.5031 
     21 O          27.1743   28.2358    2.3854 O.2       4 UNK        -0.5229 
     22 CA         25.1634   26.9499    2.1415 C.3       4 UNK         0.0329 
     23 CB         24.0203   27.7823    2.7439 C.3       4 UNK        -0.2001 
     24 N          25.2406   27.1975    0.7006 N.am      4 UNK        -0.4303 
     25 C          25.9808   26.4612   -0.1389 C.2       3 UNK         0.5044 
     26 O          26.4906   25.3829    0.1775 O.2       3 UNK        -0.5152 
     27 CA         26.1792   27.0329   -1.5538 C.3       3 UNK         0.0319 
     28 CB         26.6817   28.4897   -1.5072 C.3       3 UNK        -0.2001 
     29 N          27.1707   26.2309   -2.2687 N.am      3 UNK        -0.4354 
     30 C          26.9321   25.4670   -3.3427 C.2       2 UNK         0.4964 
     31 O          25.8378   25.4014   -3.9050 O.2       2 UNK        -0.5047 
     32 CA         28.1052   24.6410   -3.9095 C.3       2 UNK         0.0288 
     33 CB         28.6527   25.2944   -5.1897 C.3       2 UNK        -0.2113 
     34 N          29.2083   24.4599   -2.9628 N.am      2 UNK        -0.4145 
     35 C          29.1753   23.6559   -1.8894 C.2       1 UNK         0.5006 
     36 O          28.2370   22.8954   -1.6461 O.2       1 UNK        -0.5103 
     37 C          28.5334   28.0000    5.1157 C.2       5 UNK         0.5055 
     38 O          29.7275   28.2715    5.2299 O.2       5 UNK        -0.5220 
     39 N          27.5467   28.8456    5.4401 N.am      6 UNK        -0.4450 
     40 CA         27.7511   30.2153    5.9166 C.3       6 UNK         0.0367 
     41 CB         26.7212   30.5034    7.0230 C.3       6 UNK        -0.1929 
     42 C          27.6406   31.2691    4.7977 C.2       6 UNK         0.5070 
     43 O          27.9156   32.4399    5.0634 O.2       6 UNK        -0.5237 
     44 N          27.2104   30.8743    3.5904 N.am      7 UNK        -0.4739 
     45 CA         26.9136   31.7922    2.4863 C.3       7 UNK         0.0276 
     46 CB         25.7033   31.2611    1.6999 C.3       7 UNK        -0.1927 
     47 C          28.1017   32.0206    1.5395 C.2       7 UNK         0.5013 
     48 O          28.0690   32.9924    0.7824 O.2       7 UNK        -0.5193 
     49 N          29.1129   31.1444    1.5707 N.am      8 UNK        -0.4253 
     50 CA         30.2849   31.2101    0.7008 C.3       8 UNK         0.0242 
     51 CB         29.9965   30.4492   -0.6062 C.3       8 UNK        -0.2000 
     52 C          31.5101   30.6293    1.4134 C.2       8 UNK         0.4948 
     53 O          31.3599   29.7797    2.2944 O.2       8 UNK        -0.5275 
     54 N          32.6940   31.0799    0.9716 N.am      9 UNK        -0.4246 
     55 CA         34.0352   30.7138    1.4458 C.3       9 UNK         0.0261 
     56 CB         34.3143   29.2158    1.1865 C.3       9 UNK        -0.1959 
     57 C          34.3098   31.1335    2.9055 C.2       9 UNK         0.5033 
     58 O          33.5347   31.8846    3.5020 O.2       9 UNK        -0.5390 
     59 N          35.4402   30.6628    3.4465 N.am      10 UNK        -0.4215 
     60 CA         35.9052   30.9303    4.8117 C.3       10 UNK         0.0240 
     61 CB         37.4448   30.9694    4.8045 C.3       10 UNK        -0.1982 
     62 C          35.3797   29.9099    5.8425 C.2       10 UNK         0.4970 
     63 O          35.8574   29.9090    6.9780 O.2       10 UNK        -0.4916 
     64 N          34.4373   29.0473    5.4392 N.am      11 UNK        -0.4279 
     65 CA         33.8766   27.9576    6.2543 C.3       11 UNK         0.1003 
     66 C          33.0061   28.4131    7.4634 C.2       11 UNK         0.5709 
     67 N          32.5679   29.6645    7.5375 N.am      11 UNK        -0.7358 
     68 O          32.7345   27.6147    8.3572 O.2       11 UNK        -0.4999 
     69 C69        33.1023   26.9300    5.3887 C.3       12 UNK        -0.0954 
     70 S70        34.0437   26.3048    3.9542 S.3       12 UNK        -0.2268 
     71 C71        32.7060   26.0117    2.7515 C.3       12 UNK         0.0203 
     72 H72        31.7963   27.8593    0.0779 H         1 UNK         0.0888 
     73 H73        32.8280   26.8976   -0.9818 H         1 UNK         0.0888 
     74 H74        31.6066   27.9684   -1.6753 H         1 UNK         0.0888 
     75 H75        32.1737   24.7840   -1.2575 H         1 UNK         0.3017 
     76 H76        29.9665   23.7336    0.0826 H         1 UNK         0.0873 
     77 H77        31.3098   22.0852   -2.0923 H         1 UNK         0.0745 
     78 H78        32.3166   22.6725   -0.8158 H         1 UNK         0.0745 
     79 H79        31.8962   20.2617    1.9598 H         1 UNK         0.0705 
     80 H80        32.9496   21.2547    0.9926 H         1 UNK         0.0705 
     81 H81        32.9917   23.7108    1.3157 H         1 UNK         0.1334 
     82 H82        30.9172   25.3312    4.6960 H         1 UNK         0.1417 
     83 H83        30.2395   21.2669    3.5123 H         1 UNK         0.1562 
     84 H84        29.9956   23.4714    6.3294 H         1 UNK         0.0748 
     85 H85        29.3789   22.0212    5.5976 H         1 UNK         0.0748 
     86 H86        29.1482   25.6214    6.2503 H         1 UNK         0.0940 
     87 H87        27.4351   25.7932    6.4835 H         1 UNK         0.0940 
     88 H88        28.8849   26.3395    3.8390 H         1 UNK         0.0703 
     89 H89        26.2229   25.8157    4.1685 H         1 UNK         0.3081 
     90 H90        24.9474   25.8910    2.3005 H         1 UNK         0.0719 
     91 H91        24.1881   28.8521    2.6219 H         1 UNK         0.0809 
     92 H92        23.0650   27.5382    2.2789 H         1 UNK         0.0809 
     93 H93        23.9162   27.5895    3.8124 H         1 UNK         0.0809 
     94 H94        24.8671   28.0753    0.3729 H         1 UNK         0.2990 
     95 H95        25.2151   27.0057   -2.0651 H         1 UNK         0.0690 
     96 H96        25.9170   29.1666   -1.1259 H         1 UNK         0.0788 
     97 H97        26.9564   28.8478   -2.4995 H         1 UNK         0.0788 
     98 H98        27.5565   28.5877   -0.8629 H         1 UNK         0.0788 
     99 H99        28.0734   26.1675   -1.8047 H         1 UNK         0.2993 
    100 H100       27.7112   23.6557   -4.1687 H         1 UNK         0.0949 
    101 H101       29.4352   24.6856   -5.6433 H         1 UNK         0.0767 
    102 H102       27.8649   25.4136   -5.9350 H         1 UNK         0.0767 
    103 H103       29.0667   26.2842   -4.9924 H         1 UNK         0.0767 
    104 H104       30.0183   25.0488   -3.0890 H         1 UNK         0.3013 
    105 H105       26.5914   28.5419    5.3203 H         1 UNK         0.3121 
    106 H106       28.7477   30.3139    6.3529 H         1 UNK         0.0774 
    107 H107       26.8624   31.5018    7.4396 H         1 UNK         0.0815 
    108 H108       25.6983   30.4491    6.6483 H         1 UNK         0.0815 
    109 H109       26.8160   29.7960    7.8471 H         1 UNK         0.0815 
    110 H110       27.0962   29.8837    3.3932 H         1 UNK         0.2987 
    111 H111       26.6378   32.7690    2.8905 H         1 UNK         0.0949 
    112 H112       25.9068   30.2880    1.2532 H         1 UNK         0.0806 
    113 H113       24.8268   31.1669    2.3405 H         1 UNK         0.0806 
    114 H114       25.4361   31.9398    0.8887 H         1 UNK         0.0806 
    115 H115       29.1078   30.3853    2.2411 H         1 UNK         0.3010 
    116 H116       30.5018   32.2550    0.4672 H         1 UNK         0.0829 
    117 H117       29.1522   30.8833   -1.1420 H         1 UNK         0.0813 
    118 H118       30.8547   30.4766   -1.2785 H         1 UNK         0.0813 
    119 H119       29.7645   29.4017   -0.4111 H         1 UNK         0.0813 
    120 H120       32.6819   31.7944    0.2570 H         1 UNK         0.3038 
    121 H121       34.7317   31.2894    0.8340 H         1 UNK         0.0769 
    122 H122       33.7098   28.5767    1.8290 H         1 UNK         0.0811 
    123 H123       35.3595   28.9581    1.3580 H         1 UNK         0.0811 
    124 H124       34.0963   28.9515    0.1522 H         1 UNK         0.0811 
    125 H125       36.0239   30.0552    2.8889 H         1 UNK         0.3204 
    126 H126       35.5476   31.9125    5.1280 H         1 UNK         0.0748 
    127 H127       37.8375   31.2424    5.7850 H         1 UNK         0.0771 
    128 H128       37.8725   30.0014    4.5401 H         1 UNK         0.0771 
    129 H129       37.8195   31.7076    4.0950 H         1 UNK         0.0771 
    130 H130       34.0819   29.1196    4.4984 H         1 UNK         0.2980 
    131 H131       34.7282   27.4305    6.6887 H         1 UNK         0.0545 
    132 H132       32.0100   29.9462    8.3274 H         1 UNK         0.3459 
    133 H133       32.7778   30.3219    6.8041 H         1 UNK         0.3459 
    134 H134       32.8097   26.0701    5.9939 H         1 UNK         0.0616 
    135 H135       32.1792   27.3849    5.0287 H         1 UNK         0.0616 
    136 H136       31.9736   26.8201    2.7907 H         1 UNK         0.0634 
    137 H137       33.1361   26.0473    1.7497 H         1 UNK         0.0634 
@<TRIPOS>BOND
     1    1    2 1    
     2    1   72 1    
     3    1   73 1    
     4    1   74 1    
     5    2    3 2    
     6    2    4 am   BACKBONE|DICT|INTERRES
     7    4    5 1    
     8    4   75 1    
     9    5    6 1    
    10    5   35 1    
    11    5   76 1    
    12    6    7 1    
    13    6   77 1    
    14    6   78 1    
    15    7    8 1    
    16    8    9 1    
    17    8   79 1    
    18    8   80 1    
    19    9   10 ar   
    20    9   14 ar   
    21   10   11 ar   
    22   10   81 1    
    23   11   12 ar   
    24   11   71 1    
    25   12   13 ar   
    26   12   82 1    
    27   13   14 ar   
    28   13   15 1    
    29   14   83 1    
    30   15   16 1    
    31   15   84 1    
    32   15   85 1    
    33   16   17 1    
    34   17   18 1    
    35   17   86 1    
    36   17   87 1    
    37   18   19 1    
    38   18   37 1    
    39   18   88 1    
    40   19   20 am   BACKBONE|DICT|INTERRES
    41   19   89 1    
    42   20   21 2    
    43   20   22 1    
    44   22   23 1    
    45   22   24 1    
    46   22   90 1    
    47   23   91 1    
    48   23   92 1    
    49   23   93 1    
    50   24   25 am   BACKBONE|DICT|INTERRES
    51   24   94 1    
    52   25   26 2    
    53   25   27 1    
    54   27   28 1    
    55   27   29 1    
    56   27   95 1    
    57   28   96 1    
    58   28   97 1    
    59   28   98 1    
    60   29   30 am   BACKBONE|DICT|INTERRES
    61   29   99 1    
    62   30   31 2    
    63   30   32 1    
    64   32   33 1    
    65   32   34 1    
    66   32  100 1    
    67   33  101 1    
    68   33  102 1    
    69   33  103 1    
    70   34   35 am   BACKBONE|DICT|INTERRES
    71   34  104 1    
    72   35   36 2    
    73   37   38 2    
    74   37   39 am   BACKBONE|DICT|INTERRES
    75   39   40 1    
    76   39  105 1    
    77   40   41 1    
    78   40   42 1    
    79   40  106 1    
    80   41  107 1    
    81   41  108 1    
    82   41  109 1    
    83   42   43 2    
    84   42   44 am   BACKBONE|DICT|INTERRES
    85   44   45 1    
    86   44  110 1    
    87   45   46 1    
    88   45   47 1    
    89   45  111 1    
    90   46  112 1    
    91   46  113 1    
    92   46  114 1    
    93   47   48 2    
    94   47   49 am   BACKBONE|DICT|INTERRES
    95   49   50 1    
    96   49  115 1    
    97   50   51 1    
    98   50   52 1    
    99   50  116 1    
   100   51  117 1    
   101   51  118 1    
   102   51  119 1    
   103   52   53 2    
   104   52   54 am   BACKBONE|DICT|INTERRES
   105   54   55 1    
   106   54  120 1    
   107   55   56 1    
   108   55   57 1    
   109   55  121 1    
   110   56  122 1    
   111   56  123 1    
   112   56  124 1    
   113   57   58 2    
   114   57   59 am   BACKBONE|DICT|INTERRES
   115   59   60 1    
   116   59  125 1    
   117   60   61 1    
   118   60   62 1    
   119   60  126 1    
   120   61  127 1    
   121   61  128 1    
   122   61  129 1    
   123   62   63 2    
   124   62   64 am   BACKBONE|DICT|INTERRES
   125   64   65 1    
   126   64  130 1    
   127   65   66 1    
   128   65   69 1    
   129   65  131 1    
   130   66   67 am   BACKBONE|DICT|INTERRES
   131   66   68 2    
   132   67  132 1    
   133   67  133 1    
   134   69   70 1    
   135   69  134 1    
   136   69  135 1    
   137   70   71 1    
   138   71  136 1    
   139   71  137 1    
@<TRIPOS>SUBSTRUCTURE
     1 UNK         1 GROUP             0       ****    0 ROOT    
