@<TRIPOS>MOLECULE
3R136
137   139    1
SMALL
USER_CHARGES


@<TRIPOS>ATOM
      1 CA         30.1345   22.8551    7.7447 C.3       0 UNK        -0.1979 
      2 C          29.0490   22.4942    6.7413 C.2       0 UNK         0.4864 
      3 O          27.8899   22.3329    7.1267 O.2       0 UNK        -0.5359 
      4 N          29.4181   22.3526    5.4617 N.am      1 UNK        -0.4318 
      5 CA         28.5079   22.0616    4.3510 C.3       1 UNK         0.0824 
      6 C6         29.2640   21.5724    3.0856 C.3       12 UNK        -0.0944 
      7 S7         30.7070   22.5867    2.6027 S.3       12 UNK        -0.2672 
      8 C8         30.0153   23.5619    1.2287 C.3       12 UNK         0.0333 
      9 C9         31.0532   24.4977    0.6213 C.ar      12 UNK        -0.0807 
     10 C10        31.6774   25.4623    1.4174 C.ar      12 UNK        -0.0894 
     11 C11        32.6186   26.3391    0.8723 C.ar      12 UNK        -0.0804 
     12 C12        32.9223   26.2598   -0.4881 C.ar      12 UNK        -0.0824 
     13 C13        32.2742   25.3296   -1.3065 C.ar      12 UNK        -0.0762 
     14 C14        31.3514   24.4407   -0.7442 C.ar      12 UNK        -0.0782 
     15 C15        32.5618   25.2918   -2.8004 C.3       12 UNK         0.0230 
     16 S16        31.3406   26.2593   -3.7500 S.3       12 UNK        -0.2608 
     17 C17        31.7647   27.9785   -3.2948 C.3       12 UNK        -0.0989 
     18 CA         30.6411   28.7120   -2.5156 C.3       5 UNK         0.0716 
     19 N          30.1363   27.9362   -1.3740 N.am      5 UNK        -0.4135 
     20 C          29.0570   28.2507   -0.6447 C.2       4 UNK         0.5031 
     21 O          28.3873   29.2726   -0.8038 O.2       4 UNK        -0.5229 
     22 CA         28.7054   27.2930    0.5006 C.3       4 UNK         0.0329 
     23 CB         29.1899   27.8585    1.8449 C.3       4 UNK        -0.2001 
     24 N          27.2757   27.0099    0.5947 N.am      4 UNK        -0.4303 
     25 C          26.5438   26.3917   -0.3420 C.2       3 UNK         0.5044 
     26 O          26.9823   26.0273   -1.4350 O.2       3 UNK        -0.5152 
     27 CA         25.0837   26.0932    0.0543 C.3       3 UNK         0.0319 
     28 CB         24.3251   25.2637   -1.0043 C.3       3 UNK        -0.2001 
     29 N          24.9878   25.4615    1.3801 N.am      3 UNK        -0.4354 
     30 C          25.5610   24.3104    1.7673 C.2       2 UNK         0.4964 
     31 O          26.2236   23.5778    1.0279 O.2       2 UNK        -0.5047 
     32 CA         25.3185   23.8980    3.2291 C.3       2 UNK         0.0288 
     33 CB         23.9239   23.2682    3.3882 C.3       2 UNK        -0.2113 
     34 N          26.3240   22.9355    3.6815 N.am      2 UNK        -0.4145 
     35 C          27.5740   23.2521    4.0446 C.2       1 UNK         0.5006 
     36 O          27.9962   24.4095    4.1223 O.2       1 UNK        -0.5103 
     37 C          31.1104   30.1275   -2.1137 C.2       5 UNK         0.5055 
     38 O          31.0158   31.0507   -2.9233 O.2       5 UNK        -0.5220 
     39 N          31.5951   30.2726   -0.8710 N.am      6 UNK        -0.4450 
     40 CA         31.9971   31.5472   -0.2714 C.3       6 UNK         0.0367 
     41 CB         32.9365   31.2698    0.9142 C.3       6 UNK        -0.1929 
     42 C          30.8072   32.4110    0.1869 C.2       6 UNK         0.5070 
     43 O          31.0028   33.6013    0.4334 O.2       6 UNK        -0.5237 
     44 N          29.6153   31.8072    0.3228 N.am      7 UNK        -0.4739 
     45 CA         28.3217   32.3670    0.7455 C.3       7 UNK         0.0276 
     46 CB         27.8274   33.4333   -0.2506 C.3       7 UNK        -0.1927 
     47 C          28.2628   32.8972    2.1913 C.2       7 UNK         0.5013 
     48 O          27.2835   32.6292    2.8879 O.2       7 UNK        -0.5193 
     49 N          29.2879   33.6450    2.6139 N.am      8 UNK        -0.4253 
     50 CA         29.3852   34.3020    3.9186 C.3       8 UNK         0.0242 
     51 CB         30.5055   35.3536    3.8646 C.3       8 UNK        -0.2000 
     52 C          29.6154   33.3376    5.0947 C.2       8 UNK         0.4948 
     53 O          29.2377   33.6718    6.2189 O.2       8 UNK        -0.5275 
     54 N          30.2328   32.1793    4.8349 N.am      9 UNK        -0.4246 
     55 CA         30.5529   31.1552    5.8248 C.3       9 UNK         0.0261 
     56 CB         31.8112   31.5608    6.6172 C.3       9 UNK        -0.1959 
     57 C          30.7716   29.8178    5.1121 C.2       9 UNK         0.5033 
     58 O          31.0843   29.8056    3.9179 O.2       9 UNK        -0.5390 
     59 N          30.6272   28.7235    5.8684 N.am      10 UNK        -0.4215 
     60 CA         30.9501   27.3663    5.4306 C.3       10 UNK         0.0240 
     61 CB         30.1245   26.3587    6.2472 C.3       10 UNK        -0.1982 
     62 C          32.4545   27.0864    5.5788 C.2       10 UNK         0.4970 
     63 O          33.1259   27.7143    6.4008 O.2       10 UNK        -0.4916 
     64 N          32.9376   26.1246    4.7885 N.am      11 UNK        -0.4279 
     65 CA         34.3440   25.7010    4.7154 C.3       11 UNK         0.1003 
     66 C          34.6815   24.5069    5.6575 C.2       11 UNK         0.5709 
     67 N          33.7594   24.0254    6.4832 N.am      11 UNK        -0.7358 
     68 O          35.8092   24.0188    5.6573 O.2       11 UNK        -0.4999 
     69 C69        34.7481   25.4197    3.2413 C.3       12 UNK        -0.0954 
     70 S70        34.9669   26.9447    2.2584 S.3       12 UNK        -0.2268 
     71 C71        33.2799   27.3980    1.7406 C.3       12 UNK         0.0203 
     72 H72        29.9373   23.8365    8.1750 H         1 UNK         0.0888 
     73 H73        30.1537   22.1261    8.5544 H         1 UNK         0.0888 
     74 H74        31.1222   22.8736    7.2859 H         1 UNK         0.0888 
     75 H75        30.3773   22.5130    5.1896 H         1 UNK         0.3017 
     76 H76        27.8725   21.2358    4.6800 H         1 UNK         0.0873 
     77 H77        28.5833   21.4677    2.2380 H         1 UNK         0.0745 
     78 H78        29.6397   20.5652    3.2722 H         1 UNK         0.0745 
     79 H79        29.6188   22.8819    0.4731 H         1 UNK         0.0705 
     80 H80        29.1717   24.1520    1.5892 H         1 UNK         0.0705 
     81 H81        31.4185   25.5272    2.4633 H         1 UNK         0.1334 
     82 H82        33.6541   26.9358   -0.9087 H         1 UNK         0.1417 
     83 H83        30.8531   23.7175   -1.3761 H         1 UNK         0.1562 
     84 H84        32.5404   24.2588   -3.1509 H         1 UNK         0.0748 
     85 H85        33.5672   25.6603   -3.0108 H         1 UNK         0.0748 
     86 H86        31.9773   28.5151   -4.2218 H         1 UNK         0.0940 
     87 H87        32.7010   27.9902   -2.7364 H         1 UNK         0.0940 
     88 H88        29.7978   28.8424   -3.1975 H         1 UNK         0.0703 
     89 H89        30.6199   27.0675   -1.1884 H         1 UNK         0.3081 
     90 H90        29.1989   26.3420    0.3150 H         1 UNK         0.0719 
     91 H91        28.6843   28.7913    2.0989 H         1 UNK         0.0809 
     92 H92        29.0144   27.1504    2.6551 H         1 UNK         0.0809 
     93 H93        30.2591   28.0701    1.8239 H         1 UNK         0.0809 
     94 H94        26.8199   27.2816    1.4527 H         1 UNK         0.2990 
     95 H95        24.5843   27.0602    0.1321 H         1 UNK         0.0690 
     96 H96        24.3077   25.7802   -1.9648 H         1 UNK         0.0788 
     97 H97        23.2896   25.0952   -0.7086 H         1 UNK         0.0788 
     98 H98        24.7895   24.2908   -1.1680 H         1 UNK         0.0788 
     99 H99        24.4515   25.9764    2.0653 H         1 UNK         0.2993 
    100 H100       25.3790   24.7892    3.8582 H         1 UNK         0.0949 
    101 H101       23.1393   23.9692    3.1002 H         1 UNK         0.0767 
    102 H102       23.8091   22.3788    2.7670 H         1 UNK         0.0767 
    103 H103       23.7341   22.9816    4.4230 H         1 UNK         0.0767 
    104 H104       26.0714   21.9612    3.6037 H         1 UNK         0.3013 
    105 H105       31.6409   29.4578   -0.2783 H         1 UNK         0.3121 
    106 H106       32.5493   32.1242   -1.0166 H         1 UNK         0.0774 
    107 H107       33.2741   32.2011    1.3713 H         1 UNK         0.0815 
    108 H108       32.4446   30.6871    1.6940 H         1 UNK         0.0815 
    109 H109       33.8279   30.7284    0.5972 H         1 UNK         0.0815 
    110 H110       29.5623   30.8300    0.0605 H         1 UNK         0.2987 
    111 H111       27.6195   31.5325    0.6993 H         1 UNK         0.0949 
    112 H112       28.4784   34.3078   -0.2710 H         1 UNK         0.0806 
    113 H113       27.7730   33.0322   -1.2627 H         1 UNK         0.0806 
    114 H114       26.8277   33.7801    0.0145 H         1 UNK         0.0806 
    115 H115       30.0400   33.8092    1.9465 H         1 UNK         0.3010 
    116 H116       28.4410   34.8189    4.1036 H         1 UNK         0.0829 
    117 H117       30.3116   36.1009    3.0949 H         1 UNK         0.0813 
    118 H118       30.5916   35.8832    4.8146 H         1 UNK         0.0813 
    119 H119       31.4747   34.8992    3.6545 H         1 UNK         0.0813 
    120 H120       30.4796   31.9355    3.8836 H         1 UNK         0.3038 
    121 H121       29.7073   31.0456    6.5076 H         1 UNK         0.0769 
    122 H122       32.6695   31.7019    5.9590 H         1 UNK         0.0811 
    123 H123       32.0829   30.7964    7.3464 H         1 UNK         0.0811 
    124 H124       31.6561   32.4887    7.1677 H         1 UNK         0.0811 
    125 H125       30.4201   28.8379    6.8501 H         1 UNK         0.3204 
    126 H126       30.6793   27.2621    4.3786 H         1 UNK         0.0748 
    127 H127       30.2935   25.3402    5.8966 H         1 UNK         0.0771 
    128 H128       30.3764   26.3897    7.3081 H         1 UNK         0.0771 
    129 H129       29.0558   26.5515    6.1489 H         1 UNK         0.0771 
    130 H130       32.3047   25.6132    4.1947 H         1 UNK         0.2980 
    131 H131       34.9732   26.5175    5.0747 H         1 UNK         0.0545 
    132 H132       34.0002   23.2609    7.0939 H         1 UNK         0.3459 
    133 H133       32.8485   24.4479    6.5308 H         1 UNK         0.3459 
    134 H134       35.7091   24.9046    3.1970 H         1 UNK         0.0616 
    135 H135       34.0375   24.7506    2.7551 H         1 UNK         0.0616 
    136 H136       32.6678   27.6298    2.6110 H         1 UNK         0.0634 
    137 H137       33.3429   28.3283    1.1765 H         1 UNK         0.0634 
@<TRIPOS>BOND
     1    1    2 1    
     2    1   72 1    
     3    1   73 1    
     4    1   74 1    
     5    2    3 2    
     6    2    4 am   BACKBONE|DICT|INTERRES
     7    4    5 1    
     8    4   75 1    
     9    5    6 1    
    10    5   35 1    
    11    5   76 1    
    12    6    7 1    
    13    6   77 1    
    14    6   78 1    
    15    7    8 1    
    16    8    9 1    
    17    8   79 1    
    18    8   80 1    
    19    9   10 ar   
    20    9   14 ar   
    21   10   11 ar   
    22   10   81 1    
    23   11   12 ar   
    24   11   71 1    
    25   12   13 ar   
    26   12   82 1    
    27   13   14 ar   
    28   13   15 1    
    29   14   83 1    
    30   15   16 1    
    31   15   84 1    
    32   15   85 1    
    33   16   17 1    
    34   17   18 1    
    35   17   86 1    
    36   17   87 1    
    37   18   19 1    
    38   18   37 1    
    39   18   88 1    
    40   19   20 am   BACKBONE|DICT|INTERRES
    41   19   89 1    
    42   20   21 2    
    43   20   22 1    
    44   22   23 1    
    45   22   24 1    
    46   22   90 1    
    47   23   91 1    
    48   23   92 1    
    49   23   93 1    
    50   24   25 am   BACKBONE|DICT|INTERRES
    51   24   94 1    
    52   25   26 2    
    53   25   27 1    
    54   27   28 1    
    55   27   29 1    
    56   27   95 1    
    57   28   96 1    
    58   28   97 1    
    59   28   98 1    
    60   29   30 am   BACKBONE|DICT|INTERRES
    61   29   99 1    
    62   30   31 2    
    63   30   32 1    
    64   32   33 1    
    65   32   34 1    
    66   32  100 1    
    67   33  101 1    
    68   33  102 1    
    69   33  103 1    
    70   34   35 am   BACKBONE|DICT|INTERRES
    71   34  104 1    
    72   35   36 2    
    73   37   38 2    
    74   37   39 am   BACKBONE|DICT|INTERRES
    75   39   40 1    
    76   39  105 1    
    77   40   41 1    
    78   40   42 1    
    79   40  106 1    
    80   41  107 1    
    81   41  108 1    
    82   41  109 1    
    83   42   43 2    
    84   42   44 am   BACKBONE|DICT|INTERRES
    85   44   45 1    
    86   44  110 1    
    87   45   46 1    
    88   45   47 1    
    89   45  111 1    
    90   46  112 1    
    91   46  113 1    
    92   46  114 1    
    93   47   48 2    
    94   47   49 am   BACKBONE|DICT|INTERRES
    95   49   50 1    
    96   49  115 1    
    97   50   51 1    
    98   50   52 1    
    99   50  116 1    
   100   51  117 1    
   101   51  118 1    
   102   51  119 1    
   103   52   53 2    
   104   52   54 am   BACKBONE|DICT|INTERRES
   105   54   55 1    
   106   54  120 1    
   107   55   56 1    
   108   55   57 1    
   109   55  121 1    
   110   56  122 1    
   111   56  123 1    
   112   56  124 1    
   113   57   58 2    
   114   57   59 am   BACKBONE|DICT|INTERRES
   115   59   60 1    
   116   59  125 1    
   117   60   61 1    
   118   60   62 1    
   119   60  126 1    
   120   61  127 1    
   121   61  128 1    
   122   61  129 1    
   123   62   63 2    
   124   62   64 am   BACKBONE|DICT|INTERRES
   125   64   65 1    
   126   64  130 1    
   127   65   66 1    
   128   65   69 1    
   129   65  131 1    
   130   66   67 am   BACKBONE|DICT|INTERRES
   131   66   68 2    
   132   67  132 1    
   133   67  133 1    
   134   69   70 1    
   135   69  134 1    
   136   69  135 1    
   137   70   71 1    
   138   71  136 1    
   139   71  137 1    
@<TRIPOS>SUBSTRUCTURE
     1 UNK         1 GROUP             0       ****    0 ROOT    
