@<TRIPOS>MOLECULE
3R136
137   139    1
SMALL
USER_CHARGES


@<TRIPOS>ATOM
      1 CA         25.1038   21.1966    2.4449 C.3       0 UNK        -0.1979 
      2 C          26.5033   21.7918    2.4773 C.2       0 UNK         0.4864 
      3 O          26.9796   22.1715    3.5481 O.2       0 UNK        -0.5359 
      4 N          27.1579   21.8876    1.3106 N.am      1 UNK        -0.4318 
      5 CA         28.4992   22.4434    1.0821 C.3       1 UNK         0.0824 
      6 C6         29.6184   21.7100    1.8713 C.3       12 UNK        -0.0944 
      7 S7         31.2171   21.7458    0.9981 S.3       12 UNK        -0.2672 
      8 C8         32.3101   22.5474    2.2175 C.3       12 UNK         0.0333 
      9 C9         32.2236   24.0699    2.2042 C.ar      12 UNK        -0.0807 
     10 C10        31.9818   24.7740    3.3881 C.ar      12 UNK        -0.0894 
     11 C11        32.0213   26.1752    3.4074 C.ar      12 UNK        -0.0804 
     12 C12        32.2594   26.8635    2.2150 C.ar      12 UNK        -0.0824 
     13 C13        32.4605   26.1765    1.0128 C.ar      12 UNK        -0.0762 
     14 C14        32.4583   24.7789    1.0219 C.ar      12 UNK        -0.0782 
     15 C15        32.6961   26.9172   -0.3042 C.3       12 UNK         0.0230 
     16 S16        31.7511   28.4724   -0.4799 S.3       12 UNK        -0.2608 
     17 C17        30.0354   27.9051   -0.2197 C.3       12 UNK        -0.0989 
     18 CA         29.1408   28.0576   -1.4743 C.3       5 UNK         0.0716 
     19 N          28.0597   27.0739   -1.4347 N.am      5 UNK        -0.4135 
     20 C          27.2076   26.7770   -2.4228 C.2       4 UNK         0.5031 
     21 O          27.2651   27.2628   -3.5536 O.2       4 UNK        -0.5229 
     22 CA         26.1105   25.7471   -2.0979 C.3       4 UNK         0.0329 
     23 CB         26.5298   24.3451   -2.5706 C.3       4 UNK        -0.2001 
     24 N          25.7982   25.6989   -0.6655 N.am      4 UNK        -0.4303 
     25 C          24.9377   26.5216   -0.0476 C.2       3 UNK         0.5044 
     26 O          24.2642   27.3706   -0.6320 O.2       3 UNK        -0.5152 
     27 CA         24.7847   26.3671    1.4781 C.3       3 UNK         0.0319 
     28 CB         23.6120   25.4283    1.8054 C.3       3 UNK        -0.2001 
     29 N          25.9922   25.8698    2.1417 N.am      3 UNK        -0.4354 
     30 C          27.1218   26.5736    2.3062 C.2       2 UNK         0.4964 
     31 O          27.2614   27.7417    1.9507 O.2       2 UNK        -0.5047 
     32 CA         28.3113   25.8267    2.9342 C.3       2 UNK         0.0288 
     33 CB         28.2502   25.8922    4.4689 C.3       2 UNK        -0.2113 
     34 N          28.3848   24.4216    2.5298 N.am      2 UNK        -0.4145 
     35 C          28.5206   23.9715    1.2759 C.2       1 UNK         0.5006 
     36 O          28.5825   24.7075    0.2911 O.2       1 UNK        -0.5103 
     37 C          28.6139   29.5037   -1.6173 C.2       5 UNK         0.5055 
     38 O          27.4401   29.7757   -1.3514 O.2       5 UNK        -0.5220 
     39 N          29.5152   30.4174   -2.0039 N.am      6 UNK        -0.4450 
     40 CA         29.2582   31.8564   -2.1250 C.3       6 UNK         0.0367 
     41 CB         30.4577   32.5293   -2.8116 C.3       6 UNK        -0.1929 
     42 C          28.9527   32.5445   -0.7806 C.2       6 UNK         0.5070 
     43 O          28.2386   33.5479   -0.7681 O.2       6 UNK        -0.5237 
     44 N          29.4786   31.9945    0.3194 N.am      7 UNK        -0.4739 
     45 CA         29.1861   32.3999    1.6890 C.3       7 UNK         0.0276 
     46 CB         30.1612   33.5031    2.1362 C.3       7 UNK        -0.1927 
     47 C          29.3113   31.1629    2.5810 C.2       7 UNK         0.5013 
     48 O          30.2304   30.3654    2.3837 O.2       7 UNK        -0.5193 
     49 N          28.4178   31.0385    3.5681 N.am      8 UNK        -0.4253 
     50 CA         28.3974   29.9389    4.5350 C.3       8 UNK         0.0242 
     51 CB         26.9389   29.6691    4.9540 C.3       8 UNK        -0.2000 
     52 C          29.3183   30.2348    5.7341 C.2       8 UNK         0.4948 
     53 O          28.8678   30.2069    6.8809 O.2       8 UNK        -0.5275 
     54 N          30.5871   30.5423    5.4488 N.am      9 UNK        -0.4246 
     55 CA         31.6211   30.8925    6.4174 C.3       9 UNK         0.0261 
     56 CB         31.4771   32.3704    6.8279 C.3       9 UNK        -0.1959 
     57 C          32.9916   30.6300    5.7861 C.2       9 UNK         0.5033 
     58 O          33.0914   30.5831    4.5575 O.2       9 UNK        -0.5390 
     59 N          34.0146   30.4751    6.6402 N.am      10 UNK        -0.4215 
     60 CA         35.4151   30.1867    6.2947 C.3       10 UNK         0.0240 
     61 CB         36.0668   31.3988    5.5934 C.3       10 UNK        -0.1982 
     62 C          35.5722   28.8721    5.5025 C.2       10 UNK         0.4970 
     63 O          36.2641   28.8399    4.4828 O.2       10 UNK        -0.4916 
     64 N          34.8986   27.8201    5.9859 N.am      11 UNK        -0.4279 
     65 CA         34.8803   26.4751    5.3957 C.3       11 UNK         0.1003 
     66 C          36.2834   25.8086    5.3458 C.2       11 UNK         0.5709 
     67 N          36.5587   25.0181    4.3170 N.am      11 UNK        -0.7358 
     68 O          37.1021   25.9651    6.2506 O.2       11 UNK        -0.4999 
     69 C69        33.8765   25.5513    6.1379 C.3       12 UNK        -0.0954 
     70 S70        32.1426   26.1318    6.2568 S.3       12 UNK        -0.2268 
     71 C71        31.8164   26.9976    4.6804 C.3       12 UNK         0.0203 
     72 H72        25.0624   20.3049    3.0696 H         1 UNK         0.0888 
     73 H73        24.3813   21.9159    2.8297 H         1 UNK         0.0888 
     74 H74        24.8007   20.9181    1.4357 H         1 UNK         0.0888 
     75 H75        26.6936   21.5618    0.4736 H         1 UNK         0.3017 
     76 H76        28.6798   22.2719    0.0193 H         1 UNK         0.0873 
     77 H77        29.3576   20.6565    1.9839 H         1 UNK         0.0745 
     78 H78        29.7238   22.0909    2.8885 H         1 UNK         0.0745 
     79 H79        33.3389   22.2656    1.9896 H         1 UNK         0.0705 
     80 H80        32.1030   22.1468    3.2110 H         1 UNK         0.0705 
     81 H81        31.7932   24.2238    4.2986 H         1 UNK         0.1334 
     82 H82        32.2798   27.9456    2.2244 H         1 UNK         0.1417 
     83 H83        32.6440   24.2353    0.1054 H         1 UNK         0.1562 
     84 H84        32.4444   26.2734   -1.1486 H         1 UNK         0.0748 
     85 H85        33.7595   27.1426   -0.3919 H         1 UNK         0.0748 
     86 H86        29.6111   28.4266    0.6407 H         1 UNK         0.0940 
     87 H87        30.0702   26.8574    0.0787 H         1 UNK         0.0940 
     88 H88        29.7319   27.8267   -2.3632 H         1 UNK         0.0703 
     89 H89        27.9555   26.5726   -0.5626 H         1 UNK         0.3081 
     90 H90        25.2132   26.0348   -2.6503 H         1 UNK         0.0719 
     91 H91        26.7287   24.3406   -3.6432 H         1 UNK         0.0809 
     92 H92        27.4366   24.0014   -2.0716 H         1 UNK         0.0809 
     93 H93        25.7446   23.6121   -2.3850 H         1 UNK         0.0809 
     94 H94        26.3373   25.0520   -0.1075 H         1 UNK         0.2990 
     95 H95        24.5569   27.3543    1.8866 H         1 UNK         0.0690 
     96 H96        23.4387   25.3687    2.8802 H         1 UNK         0.0788 
     97 H97        23.7866   24.4170    1.4356 H         1 UNK         0.0788 
     98 H98        22.6875   25.7863    1.3499 H         1 UNK         0.0788 
     99 H99        25.9673   24.9213    2.4864 H         1 UNK         0.2993 
    100 H100       29.2251   26.3192    2.5956 H         1 UNK         0.0949 
    101 H101       28.2181   26.9212    4.8227 H         1 UNK         0.0767 
    102 H102       27.3656   25.3871    4.8593 H         1 UNK         0.0767 
    103 H103       29.1260   25.4241    4.9191 H         1 UNK         0.0767 
    104 H104       28.2196   23.7252    3.2500 H         1 UNK         0.3013 
    105 H105       30.4652   30.1116   -2.1659 H         1 UNK         0.3121 
    106 H106       28.3814   31.9852   -2.7633 H         1 UNK         0.0774 
    107 H107       30.2836   33.5987   -2.9394 H         1 UNK         0.0815 
    108 H108       31.3727   32.4161   -2.2286 H         1 UNK         0.0815 
    109 H109       30.6350   32.1116   -3.8029 H         1 UNK         0.0815 
    110 H110       30.0365   31.1529    0.2403 H         1 UNK         0.2987 
    111 H111       28.1610   32.7738    1.7461 H         1 UNK         0.0949 
    112 H112       29.9616   33.8085    3.1641 H         1 UNK         0.0806 
    113 H113       30.0708   34.3909    1.5101 H         1 UNK         0.0806 
    114 H114       31.1975   33.1650    2.0911 H         1 UNK         0.0806 
    115 H115       27.7209   31.7588    3.6938 H         1 UNK         0.3010 
    116 H116       28.7773   29.0362    4.0527 H         1 UNK         0.0829 
    117 H117       26.4894   30.5371    5.4378 H         1 UNK         0.0813 
    118 H118       26.3235   29.4070    4.0931 H         1 UNK         0.0813 
    119 H119       26.8788   28.8372    5.6567 H         1 UNK         0.0813 
    120 H120       30.9068   30.5089    4.4837 H         1 UNK         0.3038 
    121 H121       31.5171   30.2521    7.2962 H         1 UNK         0.0769 
    122 H122       31.5625   33.0349    5.9671 H         1 UNK         0.0811 
    123 H123       32.2488   32.6597    7.5422 H         1 UNK         0.0811 
    124 H124       30.5139   32.5604    7.3018 H         1 UNK         0.0811 
    125 H125       33.8178   30.5389    7.6301 H         1 UNK         0.3204 
    126 H126       35.9418   30.0348    7.2381 H         1 UNK         0.0748 
    127 H127       35.6208   31.5909    4.6168 H         1 UNK         0.0771 
    128 H128       35.9658   32.3044    6.1914 H         1 UNK         0.0771 
    129 H129       37.1332   31.2325    5.4362 H         1 UNK         0.0771 
    130 H130       34.3646   27.9322    6.8337 H         1 UNK         0.2980 
    131 H131       34.5526   26.5929    4.3625 H         1 UNK         0.0545 
    132 H132       35.8891   24.8731    3.5775 H         1 UNK         0.3459 
    133 H133       37.4574   24.5638    4.2756 H         1 UNK         0.3459 
    134 H134       33.8527   24.5713    5.6581 H         1 UNK         0.0616 
    135 H135       34.2228   25.3698    7.1572 H         1 UNK         0.0616 
    136 H136       30.7875   27.3566    4.6951 H         1 UNK         0.0634 
    137 H137       32.4411   27.8896    4.6437 H         1 UNK         0.0634 
@<TRIPOS>BOND
     1    1    2 1    
     2    1   72 1    
     3    1   73 1    
     4    1   74 1    
     5    2    3 2    
     6    2    4 am   BACKBONE|DICT|INTERRES
     7    4    5 1    
     8    4   75 1    
     9    5    6 1    
    10    5   35 1    
    11    5   76 1    
    12    6    7 1    
    13    6   77 1    
    14    6   78 1    
    15    7    8 1    
    16    8    9 1    
    17    8   79 1    
    18    8   80 1    
    19    9   10 ar   
    20    9   14 ar   
    21   10   11 ar   
    22   10   81 1    
    23   11   12 ar   
    24   11   71 1    
    25   12   13 ar   
    26   12   82 1    
    27   13   14 ar   
    28   13   15 1    
    29   14   83 1    
    30   15   16 1    
    31   15   84 1    
    32   15   85 1    
    33   16   17 1    
    34   17   18 1    
    35   17   86 1    
    36   17   87 1    
    37   18   19 1    
    38   18   37 1    
    39   18   88 1    
    40   19   20 am   BACKBONE|DICT|INTERRES
    41   19   89 1    
    42   20   21 2    
    43   20   22 1    
    44   22   23 1    
    45   22   24 1    
    46   22   90 1    
    47   23   91 1    
    48   23   92 1    
    49   23   93 1    
    50   24   25 am   BACKBONE|DICT|INTERRES
    51   24   94 1    
    52   25   26 2    
    53   25   27 1    
    54   27   28 1    
    55   27   29 1    
    56   27   95 1    
    57   28   96 1    
    58   28   97 1    
    59   28   98 1    
    60   29   30 am   BACKBONE|DICT|INTERRES
    61   29   99 1    
    62   30   31 2    
    63   30   32 1    
    64   32   33 1    
    65   32   34 1    
    66   32  100 1    
    67   33  101 1    
    68   33  102 1    
    69   33  103 1    
    70   34   35 am   BACKBONE|DICT|INTERRES
    71   34  104 1    
    72   35   36 2    
    73   37   38 2    
    74   37   39 am   BACKBONE|DICT|INTERRES
    75   39   40 1    
    76   39  105 1    
    77   40   41 1    
    78   40   42 1    
    79   40  106 1    
    80   41  107 1    
    81   41  108 1    
    82   41  109 1    
    83   42   43 2    
    84   42   44 am   BACKBONE|DICT|INTERRES
    85   44   45 1    
    86   44  110 1    
    87   45   46 1    
    88   45   47 1    
    89   45  111 1    
    90   46  112 1    
    91   46  113 1    
    92   46  114 1    
    93   47   48 2    
    94   47   49 am   BACKBONE|DICT|INTERRES
    95   49   50 1    
    96   49  115 1    
    97   50   51 1    
    98   50   52 1    
    99   50  116 1    
   100   51  117 1    
   101   51  118 1    
   102   51  119 1    
   103   52   53 2    
   104   52   54 am   BACKBONE|DICT|INTERRES
   105   54   55 1    
   106   54  120 1    
   107   55   56 1    
   108   55   57 1    
   109   55  121 1    
   110   56  122 1    
   111   56  123 1    
   112   56  124 1    
   113   57   58 2    
   114   57   59 am   BACKBONE|DICT|INTERRES
   115   59   60 1    
   116   59  125 1    
   117   60   61 1    
   118   60   62 1    
   119   60  126 1    
   120   61  127 1    
   121   61  128 1    
   122   61  129 1    
   123   62   63 2    
   124   62   64 am   BACKBONE|DICT|INTERRES
   125   64   65 1    
   126   64  130 1    
   127   65   66 1    
   128   65   69 1    
   129   65  131 1    
   130   66   67 am   BACKBONE|DICT|INTERRES
   131   66   68 2    
   132   67  132 1    
   133   67  133 1    
   134   69   70 1    
   135   69  134 1    
   136   69  135 1    
   137   70   71 1    
   138   71  136 1    
   139   71  137 1    
@<TRIPOS>SUBSTRUCTURE
     1 UNK         1 GROUP             0       ****    0 ROOT    
