@<TRIPOS>MOLECULE
3R136
137   139    1
SMALL
USER_CHARGES


@<TRIPOS>ATOM
      1 CA         28.0616   22.5870   -3.8196 C.3       0 UNK        -0.1979 
      2 C          28.2699   23.0381   -2.3827 C.2       0 UNK         0.4864 
      3 O          28.0477   24.2097   -2.0754 O.2       0 UNK        -0.5359 
      4 N          28.6778   22.1150   -1.4992 N.am      1 UNK        -0.4318 
      5 CA         28.9949   22.3395   -0.0796 C.3       1 UNK         0.0824 
      6 C6         29.3995   21.0248    0.6283 C.3       12 UNK        -0.0944 
      7 S7         30.9761   20.3838   -0.0282 S.3       12 UNK        -0.2672 
      8 C8         32.0443   20.3944    1.4494 C.3       12 UNK         0.0333 
      9 C9         32.1951   21.7790    2.0696 C.ar      12 UNK        -0.0807 
     10 C10        32.8792   22.7894    1.3900 C.ar      12 UNK        -0.0894 
     11 C11        33.0519   24.0532    1.9642 C.ar      12 UNK        -0.0804 
     12 C12        32.5361   24.2924    3.2469 C.ar      12 UNK        -0.0824 
     13 C13        31.8418   23.2919    3.9388 C.ar      12 UNK        -0.0762 
     14 C14        31.6775   22.0392    3.3410 C.ar      12 UNK        -0.0782 
     15 C15        31.2889   23.5180    5.3468 C.3       12 UNK         0.0230 
     16 S16        30.5556   25.1646    5.6428 S.3       12 UNK        -0.2608 
     17 C17        29.2997   25.2863    4.3249 C.3       12 UNK        -0.0989 
     18 CA         29.4021   26.6413    3.5712 C.3       5 UNK         0.0716 
     19 N          29.3115   26.4772    2.1168 N.am      5 UNK        -0.4135 
     20 C          29.7767   27.3782    1.2386 C.2       4 UNK         0.5031 
     21 O          30.3161   28.4346    1.5608 O.2       4 UNK        -0.5229 
     22 CA         29.5725   27.0788   -0.2546 C.3       4 UNK         0.0329 
     23 CB         30.6152   26.0706   -0.7619 C.3       4 UNK        -0.2001 
     24 N          28.2246   26.6059   -0.5744 N.am      4 UNK        -0.4303 
     25 C          27.1007   27.3114   -0.3802 C.2       3 UNK         0.5044 
     26 O          27.0714   28.4207    0.1523 O.2       3 UNK        -0.5152 
     27 CA         25.7883   26.6637   -0.8423 C.3       3 UNK         0.0319 
     28 CB         25.6235   26.7907   -2.3655 C.3       3 UNK        -0.2001 
     29 N          25.7385   25.2538   -0.4579 N.am      3 UNK        -0.4354 
     30 C          25.2730   24.8112    0.7185 C.2       2 UNK         0.4964 
     31 O          24.7555   25.5366    1.5670 O.2       2 UNK        -0.5047 
     32 CA         25.4211   23.3075    1.0157 C.3       2 UNK         0.0288 
     33 CB         24.1718   22.5415    0.5516 C.3       2 UNK        -0.2113 
     34 N          26.6126   22.6982    0.4181 N.am      2 UNK        -0.4145 
     35 C          27.8748   23.0509    0.7037 C.2       1 UNK         0.5006 
     36 O          28.1723   23.9317    1.5109 O.2       1 UNK        -0.5103 
     37 C          28.3879   27.6736    4.1128 C.2       5 UNK         0.5055 
     38 O          28.6327   28.2634    5.1661 O.2       5 UNK        -0.5220 
     39 N          27.2679   27.8812    3.3993 N.am      6 UNK        -0.4450 
     40 CA         26.2720   28.9094    3.7198 C.3       6 UNK         0.0367 
     41 CB         24.9610   28.6356    2.9676 C.3       6 UNK        -0.1929 
     42 C          26.7905   30.3268    3.4270 C.2       6 UNK         0.5070 
     43 O          26.4646   31.2565    4.1668 O.2       6 UNK        -0.5237 
     44 N          27.6335   30.4673    2.3947 N.am      7 UNK        -0.4739 
     45 CA         28.4088   31.6713    2.0900 C.3       7 UNK         0.0276 
     46 CB         28.8477   31.6204    0.6150 C.3       7 UNK        -0.1927 
     47 C          29.6001   31.8104    3.0600 C.2       7 UNK         0.5013 
     48 O          30.7555   31.7395    2.6404 O.2       7 UNK        -0.5193 
     49 N          29.2865   32.0094    4.3482 N.am      8 UNK        -0.4253 
     50 CA         30.1952   31.9903    5.5031 C.3       8 UNK         0.0242 
     51 CB         29.3659   32.1999    6.7812 C.3       8 UNK        -0.2000 
     52 C          31.3848   32.9710    5.4631 C.2       8 UNK         0.4948 
     53 O          32.3077   32.8202    6.2643 O.2       8 UNK        -0.5275 
     54 N          31.3632   33.9424    4.5400 N.am      9 UNK        -0.4246 
     55 CA         32.5019   34.7996    4.2014 C.3       9 UNK         0.0261 
     56 CB         32.0159   35.9505    3.3051 C.3       9 UNK        -0.1959 
     57 C          33.6570   34.0351    3.5203 C.2       9 UNK         0.5033 
     58 O          34.7968   34.4987    3.5904 O.2       9 UNK        -0.5390 
     59 N          33.3517   32.8971    2.8792 N.am      10 UNK        -0.4215 
     60 CA         34.3143   31.9626    2.3013 C.3       10 UNK         0.0240 
     61 CB         33.7727   31.4641    0.9436 C.3       10 UNK        -0.1982 
     62 C          34.5983   30.8412    3.3205 C.2       10 UNK         0.4970 
     63 O          35.0074   31.1367    4.4450 O.2       10 UNK        -0.4916 
     64 N          34.4097   29.5809    2.9150 N.am      11 UNK        -0.4279 
     65 CA         34.5371   28.3868    3.7612 C.3       11 UNK         0.1003 
     66 C          33.3749   28.2185    4.7832 C.2       11 UNK         0.5709 
     67 N          33.5255   27.3120    5.7401 N.am      11 UNK        -0.7358 
     68 O          32.3445   28.8846    4.7213 O.2       11 UNK        -0.4999 
     69 C69        34.7756   27.1161    2.9005 C.3       12 UNK        -0.0954 
     70 S70        33.5016   26.8404    1.6230 S.3       12 UNK        -0.2268 
     71 C71        33.8258   25.1050    1.1666 C.3       12 UNK         0.0203 
     72 H72        28.7090   23.1559   -4.4862 H         1 UNK         0.0888 
     73 H73        28.2835   21.5282   -3.9518 H         1 UNK         0.0888 
     74 H74        27.0283   22.7586   -4.1196 H         1 UNK         0.0888 
     75 H75        28.8515   21.1748   -1.8258 H         1 UNK         0.3017 
     76 H76        29.8556   23.0090   -0.0539 H         1 UNK         0.0873 
     77 H77        29.4915   21.1716    1.7058 H         1 UNK         0.0745 
     78 H78        28.6304   20.2614    0.4971 H         1 UNK         0.0745 
     79 H79        33.0307   20.0212    1.1706 H         1 UNK         0.0705 
     80 H80        31.6461   19.6840    2.1756 H         1 UNK         0.0705 
     81 H81        33.2832   22.5850    0.4074 H         1 UNK         0.1334 
     82 H82        32.6688   25.2554    3.7172 H         1 UNK         0.1417 
     83 H83        31.1548   21.2565    3.8743 H         1 UNK         0.1562 
     84 H84        32.0976   23.3668    6.0628 H         1 UNK         0.0748 
     85 H85        30.5296   22.7697    5.5800 H         1 UNK         0.0748 
     86 H86        28.3091   25.1207    4.7537 H         1 UNK         0.0940 
     87 H87        29.4510   24.4545    3.6385 H         1 UNK         0.0940 
     88 H88        30.3916   27.0653    3.7604 H         1 UNK         0.0703 
     89 H89        28.8820   25.6171    1.7804 H         1 UNK         0.3081 
     90 H90        29.7176   28.0130   -0.8013 H         1 UNK         0.0719 
     91 H91        30.4431   25.8034   -1.8046 H         1 UNK         0.0809 
     92 H92        31.6178   26.4933   -0.6992 H         1 UNK         0.0809 
     93 H93        30.6131   25.1547   -0.1723 H         1 UNK         0.0809 
     94 H94        28.1575   25.7082   -1.0517 H         1 UNK         0.2990 
     95 H95        24.9625   27.2019   -0.3716 H         1 UNK         0.0690 
     96 H96        25.6487   27.8370   -2.6732 H         1 UNK         0.0788 
     97 H97        24.6694   26.3791   -2.6948 H         1 UNK         0.0788 
     98 H98        26.4158   26.2723   -2.9070 H         1 UNK         0.0788 
     99 H99        26.2112   24.6029   -1.0738 H         1 UNK         0.2993 
    100 H100       25.5066   23.2009    2.0994 H         1 UNK         0.0949 
    101 H101       24.0484   22.5875   -0.5313 H         1 UNK         0.0767 
    102 H102       24.2189   21.4915    0.8414 H         1 UNK         0.0767 
    103 H103       23.2693   22.9591    1.0006 H         1 UNK         0.0767 
    104 H104       26.4610   21.9765   -0.2717 H         1 UNK         0.3013 
    105 H105       27.1369   27.3717    2.5372 H         1 UNK         0.3121 
    106 H106       26.0597   28.8541    4.7898 H         1 UNK         0.0774 
    107 H107       25.0975   28.6501    1.8867 H         1 UNK         0.0815 
    108 H108       24.2100   29.3888    3.2096 H         1 UNK         0.0815 
    109 H109       24.5439   27.6665    3.2408 H         1 UNK         0.0815 
    110 H110       27.8298   29.6536    1.8229 H         1 UNK         0.2987 
    111 H111       27.7705   32.5480    2.2199 H         1 UNK         0.0949 
    112 H112       29.4901   30.7621    0.4147 H         1 UNK         0.0806 
    113 H113       27.9883   31.5555   -0.0526 H         1 UNK         0.0806 
    114 H114       29.4063   32.5166    0.3420 H         1 UNK         0.0806 
    115 H115       28.2949   32.0176    4.5664 H         1 UNK         0.3010 
    116 H116       30.6265   30.9875    5.5397 H         1 UNK         0.0829 
    117 H117       29.9946   32.1487    7.6713 H         1 UNK         0.0813 
    118 H118       28.8720   33.1724    6.7851 H         1 UNK         0.0813 
    119 H119       28.5992   31.4315    6.8860 H         1 UNK         0.0813 
    120 H120       30.5587   33.9938    3.9325 H         1 UNK         0.3038 
    121 H121       32.8917   35.2261    5.1281 H         1 UNK         0.0769 
    122 H122       31.6028   35.5834    2.3646 H         1 UNK         0.0811 
    123 H123       32.8370   36.6252    3.0587 H         1 UNK         0.0811 
    124 H124       31.2487   36.5448    3.8018 H         1 UNK         0.0811 
    125 H125       32.3854   32.5715    2.8895 H         1 UNK         0.3204 
    126 H126       35.2622   32.4709    2.1143 H         1 UNK         0.0748 
    127 H127       33.5866   32.3001    0.2691 H         1 UNK         0.0771 
    128 H128       34.4891   30.8099    0.4448 H         1 UNK         0.0771 
    129 H129       32.8341   30.9173    1.0508 H         1 UNK         0.0771 
    130 H130       34.0243   29.4171    1.9968 H         1 UNK         0.2980 
    131 H131       35.4357   28.5294    4.3646 H         1 UNK         0.0545 
    132 H132       32.7748   27.1757    6.3984 H         1 UNK         0.3459 
    133 H133       34.3666   26.7631    5.8173 H         1 UNK         0.3459 
    134 H134       35.7359   27.2034    2.3902 H         1 UNK         0.0616 
    135 H135       34.8608   26.2286    3.5294 H         1 UNK         0.0616 
    136 H136       33.5759   25.0009    0.1097 H         1 UNK         0.0634 
    137 H137       34.8941   24.9009    1.2482 H         1 UNK         0.0634 
@<TRIPOS>BOND
     1    1    2 1    
     2    1   72 1    
     3    1   73 1    
     4    1   74 1    
     5    2    3 2    
     6    2    4 am   BACKBONE|DICT|INTERRES
     7    4    5 1    
     8    4   75 1    
     9    5    6 1    
    10    5   35 1    
    11    5   76 1    
    12    6    7 1    
    13    6   77 1    
    14    6   78 1    
    15    7    8 1    
    16    8    9 1    
    17    8   79 1    
    18    8   80 1    
    19    9   10 ar   
    20    9   14 ar   
    21   10   11 ar   
    22   10   81 1    
    23   11   12 ar   
    24   11   71 1    
    25   12   13 ar   
    26   12   82 1    
    27   13   14 ar   
    28   13   15 1    
    29   14   83 1    
    30   15   16 1    
    31   15   84 1    
    32   15   85 1    
    33   16   17 1    
    34   17   18 1    
    35   17   86 1    
    36   17   87 1    
    37   18   19 1    
    38   18   37 1    
    39   18   88 1    
    40   19   20 am   BACKBONE|DICT|INTERRES
    41   19   89 1    
    42   20   21 2    
    43   20   22 1    
    44   22   23 1    
    45   22   24 1    
    46   22   90 1    
    47   23   91 1    
    48   23   92 1    
    49   23   93 1    
    50   24   25 am   BACKBONE|DICT|INTERRES
    51   24   94 1    
    52   25   26 2    
    53   25   27 1    
    54   27   28 1    
    55   27   29 1    
    56   27   95 1    
    57   28   96 1    
    58   28   97 1    
    59   28   98 1    
    60   29   30 am   BACKBONE|DICT|INTERRES
    61   29   99 1    
    62   30   31 2    
    63   30   32 1    
    64   32   33 1    
    65   32   34 1    
    66   32  100 1    
    67   33  101 1    
    68   33  102 1    
    69   33  103 1    
    70   34   35 am   BACKBONE|DICT|INTERRES
    71   34  104 1    
    72   35   36 2    
    73   37   38 2    
    74   37   39 am   BACKBONE|DICT|INTERRES
    75   39   40 1    
    76   39  105 1    
    77   40   41 1    
    78   40   42 1    
    79   40  106 1    
    80   41  107 1    
    81   41  108 1    
    82   41  109 1    
    83   42   43 2    
    84   42   44 am   BACKBONE|DICT|INTERRES
    85   44   45 1    
    86   44  110 1    
    87   45   46 1    
    88   45   47 1    
    89   45  111 1    
    90   46  112 1    
    91   46  113 1    
    92   46  114 1    
    93   47   48 2    
    94   47   49 am   BACKBONE|DICT|INTERRES
    95   49   50 1    
    96   49  115 1    
    97   50   51 1    
    98   50   52 1    
    99   50  116 1    
   100   51  117 1    
   101   51  118 1    
   102   51  119 1    
   103   52   53 2    
   104   52   54 am   BACKBONE|DICT|INTERRES
   105   54   55 1    
   106   54  120 1    
   107   55   56 1    
   108   55   57 1    
   109   55  121 1    
   110   56  122 1    
   111   56  123 1    
   112   56  124 1    
   113   57   58 2    
   114   57   59 am   BACKBONE|DICT|INTERRES
   115   59   60 1    
   116   59  125 1    
   117   60   61 1    
   118   60   62 1    
   119   60  126 1    
   120   61  127 1    
   121   61  128 1    
   122   61  129 1    
   123   62   63 2    
   124   62   64 am   BACKBONE|DICT|INTERRES
   125   64   65 1    
   126   64  130 1    
   127   65   66 1    
   128   65   69 1    
   129   65  131 1    
   130   66   67 am   BACKBONE|DICT|INTERRES
   131   66   68 2    
   132   67  132 1    
   133   67  133 1    
   134   69   70 1    
   135   69  134 1    
   136   69  135 1    
   137   70   71 1    
   138   71  136 1    
   139   71  137 1    
@<TRIPOS>SUBSTRUCTURE
     1 UNK         1 GROUP             0       ****    0 ROOT    
