@<TRIPOS>MOLECULE
3R136
137   139    1
SMALL
USER_CHARGES


@<TRIPOS>ATOM
      1 CA         25.2182   20.1159    1.9464 C.3       0 UNK        -0.1979 
      2 C          25.8813   21.2110    1.1248 C.2       0 UNK         0.4864 
      3 O          25.2496   21.7688    0.2261 O.2       0 UNK        -0.5359 
      4 N          27.1468   21.5316    1.4330 N.am      1 UNK        -0.4318 
      5 CA         27.9550   22.5536    0.7529 C.3       1 UNK         0.0824 
      6 C6         29.4444   22.5219    1.1906 C.3       12 UNK        -0.0944 
      7 S7         29.7207   22.5597    3.0006 S.3       12 UNK        -0.2672 
      8 C8         29.9638   24.3304    3.3612 C.3       12 UNK         0.0333 
      9 C9         31.3503   24.8359    2.9838 C.ar      12 UNK        -0.0807 
     10 C10        32.3949   24.8033    3.9128 C.ar      12 UNK        -0.0894 
     11 C11        33.6575   25.3139    3.5902 C.ar      12 UNK        -0.0804 
     12 C12        33.8694   25.8400    2.3093 C.ar      12 UNK        -0.0824 
     13 C13        32.8328   25.8898    1.3730 C.ar      12 UNK        -0.0762 
     14 C14        31.5757   25.3882    1.7215 C.ar      12 UNK        -0.0782 
     15 C15        33.0910   26.4615   -0.0165 C.3       12 UNK         0.0230 
     16 S16        32.1132   27.9618   -0.3577 S.3       12 UNK        -0.2608 
     17 C17        30.6727   27.2610   -1.2328 C.3       12 UNK        -0.0989 
     18 CA         29.3105   27.9551   -0.9696 C.3       5 UNK         0.0716 
     19 N          28.2265   27.1519   -1.5227 N.am      5 UNK        -0.4135 
     20 C          27.7447   27.2437   -2.7655 C.2       4 UNK         0.5031 
     21 O          28.1255   28.0790   -3.5867 O.2       4 UNK        -0.5229 
     22 CA         26.6714   26.2253   -3.1781 C.3       4 UNK         0.0329 
     23 CB         27.3376   24.9407   -3.6989 C.3       4 UNK        -0.2001 
     24 N          25.7771   25.8802   -2.0705 N.am      4 UNK        -0.4303 
     25 C          24.5233   26.3325   -1.9303 C.2       3 UNK         0.5044 
     26 O          23.9889   27.1218   -2.7106 O.2       3 UNK        -0.5152 
     27 CA         23.7058   25.8048   -0.7353 C.3       3 UNK         0.0319 
     28 CB         22.8147   24.6318   -1.1749 C.3       3 UNK        -0.2001 
     29 N          24.5301   25.3749    0.3950 N.am      3 UNK        -0.4354 
     30 C          25.1775   26.2074    1.2223 C.2       2 UNK         0.4964 
     31 O          25.1025   27.4344    1.1552 O.2       2 UNK        -0.5047 
     32 CA         26.0678   25.5672    2.3032 C.3       2 UNK         0.0288 
     33 CB         25.2902   25.4224    3.6209 C.3       2 UNK        -0.2113 
     34 N          26.6512   24.2673    1.9479 N.am      2 UNK        -0.4145 
     35 C          27.3704   23.9777    0.8504 C.2       1 UNK         0.5006 
     36 O          27.5641   24.7643   -0.0779 O.2       1 UNK        -0.5103 
     37 C          28.9449   28.1578    0.5085 C.2       5 UNK         0.5055 
     38 O          28.8186   27.1709    1.2322 O.2       5 UNK        -0.5220 
     39 N          28.7048   29.4155    0.9050 N.am      6 UNK        -0.4450 
     40 CA         28.0371   29.8371    2.1452 C.3       6 UNK         0.0367 
     41 CB         27.6066   31.3089    1.9923 C.3       6 UNK        -0.1929 
     42 C          28.8120   29.5893    3.4596 C.2       6 UNK         0.5070 
     43 O          28.9559   30.5072    4.2702 O.2       6 UNK        -0.5237 
     44 N          29.2575   28.3453    3.6675 N.am      7 UNK        -0.4739 
     45 CA         29.8778   27.8026    4.8800 C.3       7 UNK         0.0276 
     46 CB         28.8027   27.5967    5.9702 C.3       7 UNK        -0.1927 
     47 C          31.1046   28.6090    5.3446 C.2       7 UNK         0.5013 
     48 O          31.8677   29.0826    4.5026 O.2       7 UNK        -0.5193 
     49 N          31.2793   28.7647    6.6643 N.am      8 UNK        -0.4253 
     50 CA         32.4132   29.4395    7.3079 C.3       8 UNK         0.0242 
     51 CB         32.2556   29.3377    8.8338 C.3       8 UNK        -0.2000 
     52 C          32.6335   30.9063    6.8886 C.2       8 UNK         0.4948 
     53 O          33.7532   31.3994    7.0236 O.2       8 UNK        -0.5275 
     54 N          31.5865   31.5728    6.3809 N.am      9 UNK        -0.4246 
     55 CA         31.6686   32.9206    5.8149 C.3       9 UNK         0.0261 
     56 CB         30.2619   33.5383    5.7612 C.3       9 UNK        -0.1959 
     57 C          32.3236   32.9466    4.4211 C.2       9 UNK         0.5033 
     58 O          32.8894   33.9770    4.0519 O.2       9 UNK        -0.5390 
     59 N          32.2330   31.8374    3.6745 N.am      10 UNK        -0.4215 
     60 CA         32.8041   31.6815    2.3358 C.3       10 UNK         0.0240 
     61 CB         31.7630   31.0100    1.4300 C.3       10 UNK        -0.1982 
     62 C          34.1116   30.8718    2.3513 C.2       10 UNK         0.4970 
     63 O          34.9720   31.1223    1.5064 O.2       10 UNK        -0.4916 
     64 N          34.2394   29.9263    3.2932 N.am      11 UNK        -0.4279 
     65 CA         35.4182   29.0771    3.5179 C.3       11 UNK         0.1003 
     66 C          36.7299   29.8811    3.7487 C.2       11 UNK         0.5709 
     67 N          37.8479   29.4205    3.2034 N.am      11 UNK        -0.7358 
     68 O          36.7483   30.8936    4.4465 O.2       11 UNK        -0.4999 
     69 C69        35.1627   28.0763    4.6801 C.3       12 UNK        -0.0954 
     70 S70        36.0860   26.5162    4.4736 S.3       12 UNK        -0.2268 
     71 C71        34.7675   25.2585    4.6428 C.3       12 UNK         0.0203 
     72 H72        24.9134   19.2945    1.2985 H         1 UNK         0.0888 
     73 H73        25.8866   19.7164    2.7089 H         1 UNK         0.0888 
     74 H74        24.3303   20.5056    2.4435 H         1 UNK         0.0888 
     75 H75        27.6150   21.0469    2.1866 H         1 UNK         0.3017 
     76 H76        27.9307   22.3027   -0.3100 H         1 UNK         0.0873 
     77 H77        30.0127   23.3133    0.7027 H         1 UNK         0.0745 
     78 H78        29.8923   21.5958    0.8274 H         1 UNK         0.0745 
     79 H79        29.8011   24.4778    4.4297 H         1 UNK         0.0705 
     80 H80        29.2014   24.9283    2.8630 H         1 UNK         0.0705 
     81 H81        32.2205   24.3850    4.8949 H         1 UNK         0.1334 
     82 H82        34.8447   26.2142    2.0342 H         1 UNK         0.1417 
     83 H83        30.7606   25.4351    1.0169 H         1 UNK         0.1562 
     84 H84        32.8941   25.6982   -0.7705 H         1 UNK         0.0748 
     85 H85        34.1448   26.7213   -0.1272 H         1 UNK         0.0748 
     86 H86        30.5915   26.1983   -1.0059 H         1 UNK         0.0940 
     87 H87        30.8908   27.3034   -2.3011 H         1 UNK         0.0940 
     88 H88        29.3250   28.9342   -1.4535 H         1 UNK         0.0703 
     89 H89        27.8809   26.4242   -0.8993 H         1 UNK         0.3081 
     90 H90        26.1018   26.6627   -4.0009 H         1 UNK         0.0719 
     91 H91        28.0067   25.1578   -4.5328 H         1 UNK         0.0809 
     92 H92        27.9282   24.4475   -2.9255 H         1 UNK         0.0809 
     93 H93        26.5947   24.2281   -4.0576 H         1 UNK         0.0809 
     94 H94        26.1629   25.2773   -1.3509 H         1 UNK         0.2990 
     95 H95        23.0575   26.6164   -0.3978 H         1 UNK         0.0690 
     96 H96        22.1652   24.3014   -0.3641 H         1 UNK         0.0788 
     97 H97        23.4071   23.7752   -1.5005 H         1 UNK         0.0788 
     98 H98        22.1709   24.9196   -2.0073 H         1 UNK         0.0788 
     99 H99        24.6530   24.3787    0.5189 H         1 UNK         0.2993 
    100 H100       26.8928   26.2543    2.4863 H         1 UNK         0.0949 
    101 H101       25.9393   25.0871    4.4303 H         1 UNK         0.0767 
    102 H102       24.8615   26.3774    3.9287 H         1 UNK         0.0767 
    103 H103       24.4693   24.7100    3.5288 H         1 UNK         0.0767 
    104 H104       26.5456   23.5324    2.6318 H         1 UNK         0.3013 
    105 H105       28.8756   30.1540    0.2384 H         1 UNK         0.3121 
    106 H106       27.1233   29.2443    2.2275 H         1 UNK         0.0774 
    107 H107       27.0246   31.6387    2.8540 H         1 UNK         0.0815 
    108 H108       28.4662   31.9743    1.9079 H         1 UNK         0.0815 
    109 H109       26.9791   31.4524    1.1125 H         1 UNK         0.0815 
    110 H110       29.1513   27.6981    2.8866 H         1 UNK         0.2987 
    111 H111       30.2683   26.8251    4.6080 H         1 UNK         0.0949 
    112 H112       28.4147   28.5459    6.3425 H         1 UNK         0.0806 
    113 H113       27.9579   27.0278    5.5809 H         1 UNK         0.0806 
    114 H114       29.1917   27.0338    6.8195 H         1 UNK         0.0806 
    115 H115       30.5909   28.3605    7.2825 H         1 UNK         0.3010 
    116 H116       33.3138   28.8922    7.0235 H         1 UNK         0.0829 
    117 H117       32.2154   28.2989    9.1621 H         1 UNK         0.0813 
    118 H118       33.0992   29.8030    9.3461 H         1 UNK         0.0813 
    119 H119       31.3495   29.8367    9.1800 H         1 UNK         0.0813 
    120 H120       30.7024   31.0912    6.2866 H         1 UNK         0.3038 
    121 H121       32.2814   33.5358    6.4776 H         1 UNK         0.0769 
    122 H122       30.3006   34.5611    5.3839 H         1 UNK         0.0811 
    123 H123       29.8056   33.5758    6.7505 H         1 UNK         0.0811 
    124 H124       29.5970   32.9757    5.1049 H         1 UNK         0.0811 
    125 H125       31.7856   31.0147    4.0685 H         1 UNK         0.3204 
    126 H126       33.0315   32.6610    1.9097 H         1 UNK         0.0748 
    127 H127       31.4936   30.0183    1.7963 H         1 UNK         0.0771 
    128 H128       30.8524   31.6048    1.3682 H         1 UNK         0.0771 
    129 H129       32.1454   30.8958    0.4151 H         1 UNK         0.0771 
    130 H130       33.4363   29.7268    3.8837 H         1 UNK         0.2980 
    131 H131       35.5332   28.5114    2.5916 H         1 UNK         0.0545 
    132 H132       38.7097   29.9209    3.3541 H         1 UNK         0.3459 
    133 H133       37.8479   28.5743    2.6558 H         1 UNK         0.3459 
    134 H134       35.4066   28.5145    5.6498 H         1 UNK         0.0616 
    135 H135       34.1047   27.8235    4.7347 H         1 UNK         0.0616 
    136 H136       35.2290   24.2713    4.6022 H         1 UNK         0.0634 
    137 H137       34.3362   25.3573    5.6402 H         1 UNK         0.0634 
@<TRIPOS>BOND
     1    1    2 1    
     2    1   72 1    
     3    1   73 1    
     4    1   74 1    
     5    2    3 2    
     6    2    4 am   BACKBONE|DICT|INTERRES
     7    4    5 1    
     8    4   75 1    
     9    5    6 1    
    10    5   35 1    
    11    5   76 1    
    12    6    7 1    
    13    6   77 1    
    14    6   78 1    
    15    7    8 1    
    16    8    9 1    
    17    8   79 1    
    18    8   80 1    
    19    9   10 ar   
    20    9   14 ar   
    21   10   11 ar   
    22   10   81 1    
    23   11   12 ar   
    24   11   71 1    
    25   12   13 ar   
    26   12   82 1    
    27   13   14 ar   
    28   13   15 1    
    29   14   83 1    
    30   15   16 1    
    31   15   84 1    
    32   15   85 1    
    33   16   17 1    
    34   17   18 1    
    35   17   86 1    
    36   17   87 1    
    37   18   19 1    
    38   18   37 1    
    39   18   88 1    
    40   19   20 am   BACKBONE|DICT|INTERRES
    41   19   89 1    
    42   20   21 2    
    43   20   22 1    
    44   22   23 1    
    45   22   24 1    
    46   22   90 1    
    47   23   91 1    
    48   23   92 1    
    49   23   93 1    
    50   24   25 am   BACKBONE|DICT|INTERRES
    51   24   94 1    
    52   25   26 2    
    53   25   27 1    
    54   27   28 1    
    55   27   29 1    
    56   27   95 1    
    57   28   96 1    
    58   28   97 1    
    59   28   98 1    
    60   29   30 am   BACKBONE|DICT|INTERRES
    61   29   99 1    
    62   30   31 2    
    63   30   32 1    
    64   32   33 1    
    65   32   34 1    
    66   32  100 1    
    67   33  101 1    
    68   33  102 1    
    69   33  103 1    
    70   34   35 am   BACKBONE|DICT|INTERRES
    71   34  104 1    
    72   35   36 2    
    73   37   38 2    
    74   37   39 am   BACKBONE|DICT|INTERRES
    75   39   40 1    
    76   39  105 1    
    77   40   41 1    
    78   40   42 1    
    79   40  106 1    
    80   41  107 1    
    81   41  108 1    
    82   41  109 1    
    83   42   43 2    
    84   42   44 am   BACKBONE|DICT|INTERRES
    85   44   45 1    
    86   44  110 1    
    87   45   46 1    
    88   45   47 1    
    89   45  111 1    
    90   46  112 1    
    91   46  113 1    
    92   46  114 1    
    93   47   48 2    
    94   47   49 am   BACKBONE|DICT|INTERRES
    95   49   50 1    
    96   49  115 1    
    97   50   51 1    
    98   50   52 1    
    99   50  116 1    
   100   51  117 1    
   101   51  118 1    
   102   51  119 1    
   103   52   53 2    
   104   52   54 am   BACKBONE|DICT|INTERRES
   105   54   55 1    
   106   54  120 1    
   107   55   56 1    
   108   55   57 1    
   109   55  121 1    
   110   56  122 1    
   111   56  123 1    
   112   56  124 1    
   113   57   58 2    
   114   57   59 am   BACKBONE|DICT|INTERRES
   115   59   60 1    
   116   59  125 1    
   117   60   61 1    
   118   60   62 1    
   119   60  126 1    
   120   61  127 1    
   121   61  128 1    
   122   61  129 1    
   123   62   63 2    
   124   62   64 am   BACKBONE|DICT|INTERRES
   125   64   65 1    
   126   64  130 1    
   127   65   66 1    
   128   65   69 1    
   129   65  131 1    
   130   66   67 am   BACKBONE|DICT|INTERRES
   131   66   68 2    
   132   67  132 1    
   133   67  133 1    
   134   69   70 1    
   135   69  134 1    
   136   69  135 1    
   137   70   71 1    
   138   71  136 1    
   139   71  137 1    
@<TRIPOS>SUBSTRUCTURE
     1 UNK         1 GROUP             0       ****    0 ROOT    
