@<TRIPOS>MOLECULE
3R136
137   139    1
SMALL
USER_CHARGES


@<TRIPOS>ATOM
      1 CA         24.3569   25.5054    2.6379 C.3       0 UNK        -0.1979 
      2 C          24.9694   24.1141    2.6371 C.2       0 UNK         0.4864 
      3 O          24.2544   23.1262    2.8121 O.2       0 UNK        -0.5359 
      4 N          26.2880   24.0333    2.4271 N.am      1 UNK        -0.4318 
      5 CA         27.0251   22.7811    2.2339 C.3       1 UNK         0.0824 
      6 C6         28.5334   22.9265    2.5459 C.3       12 UNK        -0.0944 
      7 S7         28.8852   23.4203    4.2626 S.3       12 UNK        -0.2672 
      8 C8         30.6847   23.1431    4.3241 C.3       12 UNK         0.0333 
      9 C9         31.4617   24.1937    3.5394 C.ar      12 UNK        -0.0807 
     10 C10        31.9809   25.3144    4.1937 C.ar      12 UNK        -0.0894 
     11 C11        32.7324   26.2630    3.4932 C.ar      12 UNK        -0.0804 
     12 C12        32.9422   26.0972    2.1209 C.ar      12 UNK        -0.0824 
     13 C13        32.4322   24.9790    1.4537 C.ar      12 UNK        -0.0762 
     14 C14        31.7001   24.0276    2.1707 C.ar      12 UNK        -0.0782 
     15 C15        32.7278   24.7661   -0.0257 C.3       12 UNK         0.0230 
     16 S16        32.0349   26.0747   -1.0866 S.3       12 UNK        -0.2608 
     17 C17        30.2451   25.7338   -1.0201 C.3       12 UNK        -0.0989 
     18 CA         29.4513   26.9553   -0.4761 C.3       5 UNK         0.0716 
     19 N          28.4617   27.4468   -1.4355 N.am      5 UNK        -0.4135 
     20 C          27.9686   28.6946   -1.4316 C.2       4 UNK         0.5031 
     21 O          28.3830   29.5895   -0.6933 O.2       4 UNK        -0.5229 
     22 CA         26.8227   29.0167   -2.4088 C.3       4 UNK         0.0329 
     23 CB         27.3731   29.6779   -3.6829 C.3       4 UNK        -0.2001 
     24 N          26.0227   27.8490   -2.7808 N.am      4 UNK        -0.4303 
     25 C          25.2033   27.1816   -1.9569 C.2       3 UNK         0.5044 
     26 O          24.9816   27.5096   -0.7910 O.2       3 UNK        -0.5152 
     27 CA         24.5250   25.9192   -2.5218 C.3       3 UNK         0.0319 
     28 CB         24.3896   25.9168   -4.0621 C.3       3 UNK        -0.2001 
     29 N          25.1860   24.6935   -2.0593 N.am      3 UNK        -0.4354 
     30 C          26.4736   24.3552   -2.2249 C.2       2 UNK         0.4964 
     31 O          27.3128   25.0638   -2.7860 O.2       2 UNK        -0.5047 
     32 CA         26.8939   23.0222   -1.6001 C.3       2 UNK         0.0288 
     33 CB         28.2205   22.4762   -2.1659 C.3       2 UNK        -0.2113 
     34 N          27.0093   23.2335   -0.1639 N.am      2 UNK        -0.4145 
     35 C          26.8497   22.2997    0.7821 C.2       1 UNK         0.5006 
     36 O          26.5787   21.1199    0.5518 O.2       1 UNK        -0.5103 
     37 C          28.7190   26.6373    0.8371 C.2       5 UNK         0.5055 
     38 O          27.8030   25.8105    0.8323 O.2       5 UNK        -0.5220 
     39 N          29.1159   27.3059    1.9204 N.am      6 UNK        -0.4450 
     40 CA         28.5209   27.2406    3.2489 C.3       6 UNK         0.0367 
     41 CB         27.1419   27.9312    3.2471 C.3       6 UNK        -0.1929 
     42 C          29.4687   27.9628    4.2092 C.2       6 UNK         0.5070 
     43 O          30.3494   28.6960    3.7531 O.2       6 UNK        -0.5237 
     44 N          29.2357   27.8127    5.5204 N.am      7 UNK        -0.4739 
     45 CA         29.9905   28.4811    6.5927 C.3       7 UNK         0.0276 
     46 CB         29.4162   28.0654    7.9557 C.3       7 UNK        -0.1927 
     47 C          30.0363   30.0176    6.4717 C.2       7 UNK         0.5013 
     48 O          31.0400   30.6273    6.8413 O.2       7 UNK        -0.5193 
     49 N          28.9795   30.6041    5.8906 N.am      8 UNK        -0.4253 
     50 CA         28.8686   32.0229    5.5408 C.3       8 UNK         0.0242 
     51 CB         27.4494   32.2973    5.0168 C.3       8 UNK        -0.2000 
     52 C          29.9193   32.5168    4.5250 C.2       8 UNK         0.4948 
     53 O          30.1819   33.7193    4.4860 O.2       8 UNK        -0.5275 
     54 N          30.5179   31.6053    3.7412 N.am      9 UNK        -0.4246 
     55 CA         31.6183   31.9025    2.8191 C.3       9 UNK         0.0261 
     56 CB         31.6526   30.8412    1.7043 C.3       9 UNK        -0.1959 
     57 C          32.9873   31.9963    3.5218 C.2       9 UNK         0.5033 
     58 O          33.9685   32.3332    2.8567 O.2       9 UNK        -0.5390 
     59 N          33.0511   31.6792    4.8259 N.am      10 UNK        -0.4215 
     60 CA         34.2116   31.6905    5.7292 C.3       10 UNK         0.0240 
     61 CB         34.8456   33.0919    5.8312 C.3       10 UNK        -0.1982 
     62 C          35.2718   30.6154    5.4306 C.2       10 UNK         0.4970 
     63 O          35.7281   29.9684    6.3739 O.2       10 UNK        -0.4916 
     64 N          35.6170   30.4412    4.1470 N.am      11 UNK        -0.4279 
     65 CA         36.5580   29.4621    3.5756 C.3       11 UNK         0.1003 
     66 C          37.9234   29.3474    4.3221 C.2       11 UNK         0.5709 
     67 N          38.4850   28.1559    4.4814 N.am      11 UNK        -0.7358 
     68 O          38.5162   30.3566    4.7004 O.2       11 UNK        -0.4999 
     69 C69        35.8697   28.1202    3.1758 C.3       12 UNK        -0.0954 
     70 S70        35.1043   27.2002    4.5564 S.3       12 UNK        -0.2268 
     71 C71        33.3314   27.4526    4.2288 C.3       12 UNK         0.0203 
     72 H72        24.6211   26.0371    3.5514 H         1 UNK         0.0888 
     73 H73        24.7070   26.0811    1.7807 H         1 UNK         0.0888 
     74 H74        23.2702   25.4487    2.5793 H         1 UNK         0.0888 
     75 H75        26.8126   24.8757    2.2101 H         1 UNK         0.3017 
     76 H76        26.6104   22.0171    2.8953 H         1 UNK         0.0873 
     77 H77        28.9866   23.6652    1.8846 H         1 UNK         0.0745 
     78 H78        29.0473   21.9821    2.3546 H         1 UNK         0.0745 
     79 H79        30.9172   22.1444    3.9513 H         1 UNK         0.0705 
     80 H80        31.0004   23.1527    5.3685 H         1 UNK         0.0705 
     81 H81        31.8135   25.4399    5.2548 H         1 UNK         0.1334 
     82 H82        33.5229   26.8254    1.5726 H         1 UNK         0.1417 
     83 H83        31.3258   23.1476    1.6660 H         1 UNK         0.1562 
     84 H84        32.3611   23.7967   -0.3671 H         1 UNK         0.0748 
     85 H85        33.8097   24.7452   -0.1639 H         1 UNK         0.0748 
     86 H86        30.0681   24.8267   -0.4383 H         1 UNK         0.0940 
     87 H87        29.9309   25.4831   -2.0346 H         1 UNK         0.0940 
     88 H88        30.1484   27.7734   -0.2790 H         1 UNK         0.0703 
     89 H89        28.0284   26.7464   -2.0300 H         1 UNK         0.3081 
     90 H90        26.1624   29.7306   -1.9117 H         1 UNK         0.0719 
     91 H91        27.9511   30.5708   -3.4400 H         1 UNK         0.0809 
     92 H92        28.0299   29.0052   -4.2360 H         1 UNK         0.0809 
     93 H93        26.5681   29.9872   -4.3499 H         1 UNK         0.0809 
     94 H94        26.1612   27.4790   -3.7103 H         1 UNK         0.2990 
     95 H95        23.5161   25.9048   -2.1061 H         1 UNK         0.0690 
     96 H96        23.7801   25.0769   -4.3958 H         1 UNK         0.0788 
     97 H97        25.3523   25.8400   -4.5685 H         1 UNK         0.0788 
     98 H98        23.8994   26.8251   -4.4156 H         1 UNK         0.0788 
     99 H99        24.5992   24.0636   -1.5297 H         1 UNK         0.2993 
    100 H100       26.1052   22.2943   -1.8037 H         1 UNK         0.0949 
    101 H101       28.1653   22.3666   -3.2497 H         1 UNK         0.0767 
    102 H102       29.0592   23.1360   -1.9461 H         1 UNK         0.0767 
    103 H103       28.4527   21.4946   -1.7526 H         1 UNK         0.0767 
    104 H104       27.2182   24.1882    0.1269 H         1 UNK         0.3013 
    105 H105       29.9034   27.9428    1.8738 H         1 UNK         0.3121 
    106 H106       28.4283   26.1972    3.5506 H         1 UNK         0.0774 
    107 H107       26.4765   27.5061    2.4979 H         1 UNK         0.0815 
    108 H108       26.6463   27.8294    4.2130 H         1 UNK         0.0815 
    109 H109       27.2291   28.9974    3.0328 H         1 UNK         0.0815 
    110 H110       28.4891   27.1978    5.8125 H         1 UNK         0.2987 
    111 H111       31.0206   28.1264    6.5375 H         1 UNK         0.0949 
    112 H112       29.4772   26.9866    8.1004 H         1 UNK         0.0806 
    113 H113       29.9718   28.5307    8.7715 H         1 UNK         0.0806 
    114 H114       28.3719   28.3614    8.0623 H         1 UNK         0.0806 
    115 H115       28.2098   30.0108    5.6186 H         1 UNK         0.3010 
    116 H116       29.0141   32.5978    6.4578 H         1 UNK         0.0829 
    117 H117       26.6939   32.0426    5.7604 H         1 UNK         0.0813 
    118 H118       27.3193   33.3534    4.7757 H         1 UNK         0.0813 
    119 H119       27.2367   31.7283    4.1107 H         1 UNK         0.0813 
    120 H120       30.2725   30.6225    3.8356 H         1 UNK         0.3038 
    121 H121       31.4282   32.8709    2.3517 H         1 UNK         0.0769 
    122 H122       32.3659   31.1184    0.9270 H         1 UNK         0.0811 
    123 H123       30.6793   30.7314    1.2250 H         1 UNK         0.0811 
    124 H124       31.9548   29.8644    2.0815 H         1 UNK         0.0811 
    125 H125       32.1916   31.3751    5.2723 H         1 UNK         0.3204 
    126 H126       33.8030   31.4521    6.7129 H         1 UNK         0.0748 
    127 H127       35.6303   33.1075    6.5888 H         1 UNK         0.0771 
    128 H128       35.2997   33.4072    4.8914 H         1 UNK         0.0771 
    129 H129       34.1062   33.8410    6.1146 H         1 UNK         0.0771 
    130 H130       35.1842   31.0758    3.4807 H         1 UNK         0.2980 
    131 H131       36.8494   29.9197    2.6296 H         1 UNK         0.0545 
    132 H132       39.3789   28.0895    4.9419 H         1 UNK         0.3459 
    133 H133       38.0026   27.3204    4.1895 H         1 UNK         0.3459 
    134 H134       35.1097   28.3299    2.4231 H         1 UNK         0.0616 
    135 H135       36.5774   27.4588    2.6740 H         1 UNK         0.0616 
    136 H136       32.8285   27.5955    5.1846 H         1 UNK         0.0634 
    137 H137       33.1663   28.3727    3.6671 H         1 UNK         0.0634 
@<TRIPOS>BOND
     1    1    2 1    
     2    1   72 1    
     3    1   73 1    
     4    1   74 1    
     5    2    3 2    
     6    2    4 am   BACKBONE|DICT|INTERRES
     7    4    5 1    
     8    4   75 1    
     9    5    6 1    
    10    5   35 1    
    11    5   76 1    
    12    6    7 1    
    13    6   77 1    
    14    6   78 1    
    15    7    8 1    
    16    8    9 1    
    17    8   79 1    
    18    8   80 1    
    19    9   10 ar   
    20    9   14 ar   
    21   10   11 ar   
    22   10   81 1    
    23   11   12 ar   
    24   11   71 1    
    25   12   13 ar   
    26   12   82 1    
    27   13   14 ar   
    28   13   15 1    
    29   14   83 1    
    30   15   16 1    
    31   15   84 1    
    32   15   85 1    
    33   16   17 1    
    34   17   18 1    
    35   17   86 1    
    36   17   87 1    
    37   18   19 1    
    38   18   37 1    
    39   18   88 1    
    40   19   20 am   BACKBONE|DICT|INTERRES
    41   19   89 1    
    42   20   21 2    
    43   20   22 1    
    44   22   23 1    
    45   22   24 1    
    46   22   90 1    
    47   23   91 1    
    48   23   92 1    
    49   23   93 1    
    50   24   25 am   BACKBONE|DICT|INTERRES
    51   24   94 1    
    52   25   26 2    
    53   25   27 1    
    54   27   28 1    
    55   27   29 1    
    56   27   95 1    
    57   28   96 1    
    58   28   97 1    
    59   28   98 1    
    60   29   30 am   BACKBONE|DICT|INTERRES
    61   29   99 1    
    62   30   31 2    
    63   30   32 1    
    64   32   33 1    
    65   32   34 1    
    66   32  100 1    
    67   33  101 1    
    68   33  102 1    
    69   33  103 1    
    70   34   35 am   BACKBONE|DICT|INTERRES
    71   34  104 1    
    72   35   36 2    
    73   37   38 2    
    74   37   39 am   BACKBONE|DICT|INTERRES
    75   39   40 1    
    76   39  105 1    
    77   40   41 1    
    78   40   42 1    
    79   40  106 1    
    80   41  107 1    
    81   41  108 1    
    82   41  109 1    
    83   42   43 2    
    84   42   44 am   BACKBONE|DICT|INTERRES
    85   44   45 1    
    86   44  110 1    
    87   45   46 1    
    88   45   47 1    
    89   45  111 1    
    90   46  112 1    
    91   46  113 1    
    92   46  114 1    
    93   47   48 2    
    94   47   49 am   BACKBONE|DICT|INTERRES
    95   49   50 1    
    96   49  115 1    
    97   50   51 1    
    98   50   52 1    
    99   50  116 1    
   100   51  117 1    
   101   51  118 1    
   102   51  119 1    
   103   52   53 2    
   104   52   54 am   BACKBONE|DICT|INTERRES
   105   54   55 1    
   106   54  120 1    
   107   55   56 1    
   108   55   57 1    
   109   55  121 1    
   110   56  122 1    
   111   56  123 1    
   112   56  124 1    
   113   57   58 2    
   114   57   59 am   BACKBONE|DICT|INTERRES
   115   59   60 1    
   116   59  125 1    
   117   60   61 1    
   118   60   62 1    
   119   60  126 1    
   120   61  127 1    
   121   61  128 1    
   122   61  129 1    
   123   62   63 2    
   124   62   64 am   BACKBONE|DICT|INTERRES
   125   64   65 1    
   126   64  130 1    
   127   65   66 1    
   128   65   69 1    
   129   65  131 1    
   130   66   67 am   BACKBONE|DICT|INTERRES
   131   66   68 2    
   132   67  132 1    
   133   67  133 1    
   134   69   70 1    
   135   69  134 1    
   136   69  135 1    
   137   70   71 1    
   138   71  136 1    
   139   71  137 1    
@<TRIPOS>SUBSTRUCTURE
     1 UNK         1 GROUP             0       ****    0 ROOT    
