@<TRIPOS>MOLECULE
3R136
137   139    1
SMALL
USER_CHARGES


@<TRIPOS>ATOM
      1 CA         30.1627   25.2125    4.7014 C.3       0 UNK        -0.1979 
      2 C          28.8391   24.6037    4.2725 C.2       0 UNK         0.4864 
      3 O          27.8849   24.5713    5.0508 O.2       0 UNK        -0.5359 
      4 N          28.7724   24.1299    3.0251 N.am      1 UNK        -0.4318 
      5 CA         27.6380   23.4306    2.4126 C.3       1 UNK         0.0824 
      6 C6         28.1063   22.4537    1.2977 C.3       12 UNK        -0.0944 
      7 S7         29.2747   23.2032    0.1105 S.3       12 UNK        -0.2672 
      8 C8         30.8673   22.5836    0.7473 C.3       12 UNK         0.0333 
      9 C9         31.9651   23.6023    0.4968 C.ar      12 UNK        -0.0807 
     10 C10        32.5581   24.2941    1.5563 C.ar      12 UNK        -0.0894 
     11 C11        33.5273   25.2725    1.3117 C.ar      12 UNK        -0.0804 
     12 C12        33.8821   25.5746   -0.0097 C.ar      12 UNK        -0.0824 
     13 C13        33.2980   24.8800   -1.0763 C.ar      12 UNK        -0.0762 
     14 C14        32.3691   23.8721   -0.8103 C.ar      12 UNK        -0.0782 
     15 C15        33.6671   25.1985   -2.5195 C.3       12 UNK         0.0230 
     16 S16        32.6821   26.5691   -3.2147 S.3       12 UNK        -0.2608 
     17 C17        30.9753   25.8927   -3.2686 C.3       12 UNK        -0.0989 
     18 CA         29.8193   26.9208   -3.1002 C.3       5 UNK         0.0716 
     19 N          28.5757   26.2974   -2.6551 N.am      5 UNK        -0.4135 
     20 C          27.5424   25.9411   -3.4230 C.2       4 UNK         0.5031 
     21 O          27.5767   25.8898   -4.6529 O.2       4 UNK        -0.5229 
     22 CA         26.2269   25.6370   -2.6758 C.3       4 UNK         0.0329 
     23 CB         26.0977   24.1307   -2.4025 C.3       4 UNK        -0.2001 
     24 N          26.1123   26.3867   -1.4133 N.am      4 UNK        -0.4303 
     25 C          25.9826   27.7241   -1.3502 C.2       3 UNK         0.5044 
     26 O          25.7934   28.4260   -2.3448 O.2       3 UNK        -0.5152 
     27 CA         26.1750   28.4103    0.0177 C.3       3 UNK         0.0319 
     28 CB         25.3843   29.7302    0.1523 C.3       3 UNK        -0.2001 
     29 N          25.9713   27.5314    1.1751 N.am      3 UNK        -0.4354 
     30 C          24.8059   27.0143    1.5913 C.2       2 UNK         0.4964 
     31 O          23.7256   27.2279    1.0383 O.2       2 UNK        -0.5047 
     32 CA         24.8613   26.0985    2.8334 C.3       2 UNK         0.0288 
     33 CB         23.5856   25.2435    2.9893 C.3       2 UNK        -0.2113 
     34 N          26.0441   25.2288    2.9120 N.am      2 UNK        -0.4145 
     35 C          26.5171   24.3991    1.9696 C.2       1 UNK         0.5006 
     36 O          26.0961   24.3754    0.8118 O.2       1 UNK        -0.5103 
     37 C          30.0964   28.0621   -2.1063 C.2       5 UNK         0.5055 
     38 O          30.2191   29.2157   -2.5214 O.2       5 UNK        -0.5220 
     39 N          30.1271   27.7285   -0.8100 N.am      6 UNK        -0.4450 
     40 CA         30.2916   28.6633    0.2948 C.3       6 UNK         0.0367 
     41 CB         31.7912   28.8660    0.5687 C.3       6 UNK        -0.1929 
     42 C          29.5384   28.1284    1.5193 C.2       6 UNK         0.5070 
     43 O          29.0988   26.9748    1.5228 O.2       6 UNK        -0.5237 
     44 N          29.3602   28.9994    2.5139 N.am      7 UNK        -0.4739 
     45 CA         28.7554   28.7020    3.8108 C.3       7 UNK         0.0276 
     46 CB         27.5825   29.6688    4.0428 C.3       7 UNK        -0.1927 
     47 C          29.8224   28.8724    4.8999 C.2       7 UNK         0.5013 
     48 O          30.8616   29.4858    4.6438 O.2       7 UNK        -0.5193 
     49 N          29.5453   28.3520    6.1036 N.am      8 UNK        -0.4253 
     50 CA         30.4767   28.2895    7.2404 C.3       8 UNK         0.0242 
     51 CB         29.7674   27.6541    8.4465 C.3       8 UNK        -0.2000 
     52 C          31.1190   29.6314    7.6391 C.2       8 UNK         0.4948 
     53 O          32.2880   29.6479    8.0246 O.2       8 UNK        -0.5275 
     54 N          30.3663   30.7305    7.4923 N.am      9 UNK        -0.4246 
     55 CA         30.8355   32.1009    7.7150 C.3       9 UNK         0.0261 
     56 CB         29.6296   33.0545    7.6980 C.3       9 UNK        -0.1959 
     57 C          31.9042   32.5695    6.7070 C.2       9 UNK         0.5033 
     58 O          32.6969   33.4483    7.0494 O.2       9 UNK        -0.5390 
     59 N          31.9094   31.9922    5.4975 N.am      10 UNK        -0.4215 
     60 CA         32.9016   32.2515    4.4545 C.3       10 UNK         0.0240 
     61 CB         32.2160   32.2514    3.0781 C.3       10 UNK        -0.1982 
     62 C          34.0381   31.2193    4.5021 C.2       10 UNK         0.4970 
     63 O          35.1958   31.6025    4.3292 O.2       10 UNK        -0.4916 
     64 N          33.7000   29.9428    4.7379 N.am      11 UNK        -0.4279 
     65 CA         34.6669   28.8430    4.8887 C.3       11 UNK         0.1003 
     66 C          35.5850   28.9810    6.1356 C.2       11 UNK         0.5709 
     67 N          35.0907   29.4764    7.2640 N.am      11 UNK        -0.7358 
     68 O          36.7628   28.6363    6.0747 O.2       11 UNK        -0.4999 
     69 C69        33.9853   27.4511    4.8797 C.3       12 UNK        -0.0954 
     70 S70        33.0659   27.1054    3.3448 S.3       12 UNK        -0.2268 
     71 C71        34.2015   25.9732    2.4846 C.3       12 UNK         0.0203 
     72 H72        30.4314   26.0353    4.0410 H         1 UNK         0.0888 
     73 H73        30.9563   24.4671    4.6652 H         1 UNK         0.0888 
     74 H74        30.1049   25.5898    5.7214 H         1 UNK         0.0888 
     75 H75        29.5456   24.2907    2.3939 H         1 UNK         0.3017 
     76 H76        27.1804   22.8098    3.1862 H         1 UNK         0.0873 
     77 H77        27.2567   22.0493    0.7441 H         1 UNK         0.0745 
     78 H78        28.5788   21.5835    1.7555 H         1 UNK         0.0745 
     79 H79        30.7928   22.3670    1.8140 H         1 UNK         0.0705 
     80 H80        31.1126   21.6411    0.2558 H         1 UNK         0.0705 
     81 H81        32.2688   24.0762    2.5747 H         1 UNK         0.1334 
     82 H82        34.6158   26.3436   -0.2093 H         1 UNK         0.1417 
     83 H83        31.9214   23.3202   -1.6257 H         1 UNK         0.1562 
     84 H84        33.5470   24.3154   -3.1492 H         1 UNK         0.0748 
     85 H85        34.7236   25.4652   -2.5740 H         1 UNK         0.0748 
     86 H86        30.8722   25.1364   -2.4959 H         1 UNK         0.0940 
     87 H87        30.8485   25.3572   -4.2106 H         1 UNK         0.0940 
     88 H88        29.6521   27.3946   -4.0703 H         1 UNK         0.0703 
     89 H89        28.4114   26.3134   -1.6598 H         1 UNK         0.3081 
     90 H90        25.4008   25.9373   -3.3238 H         1 UNK         0.0719 
     91 H91        26.9041   23.7647   -1.7661 H         1 UNK         0.0809 
     92 H92        25.1533   23.8964   -1.9109 H         1 UNK         0.0809 
     93 H93        26.1313   23.5607   -3.3318 H         1 UNK         0.0809 
     94 H94        26.1953   25.8488   -0.5544 H         1 UNK         0.2990 
     95 H95        27.2278   28.6849    0.0401 H         1 UNK         0.0690 
     96 H96        25.5527   30.1984    1.1219 H         1 UNK         0.0788 
     97 H97        24.3115   29.5779    0.0332 H         1 UNK         0.0788 
     98 H98        25.6921   30.4490   -0.6082 H         1 UNK         0.0788 
     99 H99        26.8166   27.2462    1.6557 H         1 UNK         0.2993 
    100 H100       24.9168   26.7686    3.6927 H         1 UNK         0.0949 
    101 H101       22.6953   25.8700    3.0593 H         1 UNK         0.0767 
    102 H102       23.4477   24.5718    2.1410 H         1 UNK         0.0767 
    103 H103       23.6222   24.6372    3.8944 H         1 UNK         0.0767 
    104 H104       26.4987   25.1738    3.8203 H         1 UNK         0.3013 
    105 H105       30.0185   26.7663   -0.5150 H         1 UNK         0.3121 
    106 H106       29.8405   29.6232    0.0335 H         1 UNK         0.0774 
    107 H107       32.2686   29.4118   -0.2450 H         1 UNK         0.0815 
    108 H108       32.3052   27.9111    0.6673 H         1 UNK         0.0815 
    109 H109       31.9671   29.4283    1.4852 H         1 UNK         0.0815 
    110 H110       29.8153   29.8994    2.4543 H         1 UNK         0.2987 
    111 H111       28.3879   27.6744    3.8420 H         1 UNK         0.0949 
    112 H112       27.9122   30.7086    4.0623 H         1 UNK         0.0806 
    113 H113       26.8324   29.5736    3.2578 H         1 UNK         0.0806 
    114 H114       27.0818   29.4663    4.9903 H         1 UNK         0.0806 
    115 H115       28.6536   27.8968    6.2377 H         1 UNK         0.3010 
    116 H116       31.2911   27.6263    6.9446 H         1 UNK         0.0829 
    117 H117       29.4182   26.6468    8.2181 H         1 UNK         0.0813 
    118 H118       30.4434   27.5734    9.2992 H         1 UNK         0.0813 
    119 H119       28.9079   28.2441    8.7671 H         1 UNK         0.0813 
    120 H120       29.4163   30.6188    7.1694 H         1 UNK         0.3038 
    121 H121       31.2880   32.1398    8.7083 H         1 UNK         0.0769 
    122 H122       29.1200   33.0450    6.7336 H         1 UNK         0.0811 
    123 H123       29.9422   34.0818    7.8908 H         1 UNK         0.0811 
    124 H124       28.9027   32.7904    8.4664 H         1 UNK         0.0811 
    125 H125       31.2678   31.2253    5.3175 H         1 UNK         0.3204 
    126 H126       33.3443   33.2388    4.6029 H         1 UNK         0.0748 
    127 H127       31.4679   33.0414    3.0113 H         1 UNK         0.0771 
    128 H128       32.9401   32.4215    2.2802 H         1 UNK         0.0771 
    129 H129       31.7189   31.3045    2.8725 H         1 UNK         0.0771 
    130 H130       32.7178   29.6928    4.8058 H         1 UNK         0.2980 
    131 H131       35.3245   28.8835    4.0181 H         1 UNK         0.0545 
    132 H132       35.6951   29.5668    8.0643 H         1 UNK         0.3459 
    133 H133       34.1011   29.6852    7.3581 H         1 UNK         0.3459 
    134 H134       34.7229   26.6614    5.0334 H         1 UNK         0.0616 
    135 H135       33.2858   27.3711    5.7124 H         1 UNK         0.0616 
    136 H136       34.5602   25.2157    3.1829 H         1 UNK         0.0634 
    137 H137       35.0780   26.5324    2.1539 H         1 UNK         0.0634 
@<TRIPOS>BOND
     1    1    2 1    
     2    1   72 1    
     3    1   73 1    
     4    1   74 1    
     5    2    3 2    
     6    2    4 am   BACKBONE|DICT|INTERRES
     7    4    5 1    
     8    4   75 1    
     9    5    6 1    
    10    5   35 1    
    11    5   76 1    
    12    6    7 1    
    13    6   77 1    
    14    6   78 1    
    15    7    8 1    
    16    8    9 1    
    17    8   79 1    
    18    8   80 1    
    19    9   10 ar   
    20    9   14 ar   
    21   10   11 ar   
    22   10   81 1    
    23   11   12 ar   
    24   11   71 1    
    25   12   13 ar   
    26   12   82 1    
    27   13   14 ar   
    28   13   15 1    
    29   14   83 1    
    30   15   16 1    
    31   15   84 1    
    32   15   85 1    
    33   16   17 1    
    34   17   18 1    
    35   17   86 1    
    36   17   87 1    
    37   18   19 1    
    38   18   37 1    
    39   18   88 1    
    40   19   20 am   BACKBONE|DICT|INTERRES
    41   19   89 1    
    42   20   21 2    
    43   20   22 1    
    44   22   23 1    
    45   22   24 1    
    46   22   90 1    
    47   23   91 1    
    48   23   92 1    
    49   23   93 1    
    50   24   25 am   BACKBONE|DICT|INTERRES
    51   24   94 1    
    52   25   26 2    
    53   25   27 1    
    54   27   28 1    
    55   27   29 1    
    56   27   95 1    
    57   28   96 1    
    58   28   97 1    
    59   28   98 1    
    60   29   30 am   BACKBONE|DICT|INTERRES
    61   29   99 1    
    62   30   31 2    
    63   30   32 1    
    64   32   33 1    
    65   32   34 1    
    66   32  100 1    
    67   33  101 1    
    68   33  102 1    
    69   33  103 1    
    70   34   35 am   BACKBONE|DICT|INTERRES
    71   34  104 1    
    72   35   36 2    
    73   37   38 2    
    74   37   39 am   BACKBONE|DICT|INTERRES
    75   39   40 1    
    76   39  105 1    
    77   40   41 1    
    78   40   42 1    
    79   40  106 1    
    80   41  107 1    
    81   41  108 1    
    82   41  109 1    
    83   42   43 2    
    84   42   44 am   BACKBONE|DICT|INTERRES
    85   44   45 1    
    86   44  110 1    
    87   45   46 1    
    88   45   47 1    
    89   45  111 1    
    90   46  112 1    
    91   46  113 1    
    92   46  114 1    
    93   47   48 2    
    94   47   49 am   BACKBONE|DICT|INTERRES
    95   49   50 1    
    96   49  115 1    
    97   50   51 1    
    98   50   52 1    
    99   50  116 1    
   100   51  117 1    
   101   51  118 1    
   102   51  119 1    
   103   52   53 2    
   104   52   54 am   BACKBONE|DICT|INTERRES
   105   54   55 1    
   106   54  120 1    
   107   55   56 1    
   108   55   57 1    
   109   55  121 1    
   110   56  122 1    
   111   56  123 1    
   112   56  124 1    
   113   57   58 2    
   114   57   59 am   BACKBONE|DICT|INTERRES
   115   59   60 1    
   116   59  125 1    
   117   60   61 1    
   118   60   62 1    
   119   60  126 1    
   120   61  127 1    
   121   61  128 1    
   122   61  129 1    
   123   62   63 2    
   124   62   64 am   BACKBONE|DICT|INTERRES
   125   64   65 1    
   126   64  130 1    
   127   65   66 1    
   128   65   69 1    
   129   65  131 1    
   130   66   67 am   BACKBONE|DICT|INTERRES
   131   66   68 2    
   132   67  132 1    
   133   67  133 1    
   134   69   70 1    
   135   69  134 1    
   136   69  135 1    
   137   70   71 1    
   138   71  136 1    
   139   71  137 1    
@<TRIPOS>SUBSTRUCTURE
     1 UNK         1 GROUP             0       ****    0 ROOT    
