@<TRIPOS>MOLECULE
3R136
137   139    1
SMALL
USER_CHARGES


@<TRIPOS>ATOM
      1 CA         30.0839   20.3412   -3.5761 C.3       0 UNK        -0.1979 
      2 C          29.9470   21.6876   -2.8816 C.2       0 UNK         0.4864 
      3 O          30.0076   22.7276   -3.5404 O.2       0 UNK        -0.5359 
      4 N          29.7499   21.6829   -1.5567 N.am      1 UNK        -0.4318 
      5 CA         29.6179   22.8717   -0.7030 C.3       1 UNK         0.0824 
      6 C6         29.9894   22.5630    0.7722 C.3       12 UNK        -0.0944 
      7 S7         31.6881   21.9201    0.9426 S.3       12 UNK        -0.2672 
      8 C8         31.6100   21.1326    2.5822 C.3       12 UNK         0.0333 
      9 C9         31.6290   22.1654    3.6991 C.ar      12 UNK        -0.0807 
     10 C10        32.8458   22.7014    4.1315 C.ar      12 UNK        -0.0894 
     11 C11        32.8769   23.6644    5.1441 C.ar      12 UNK        -0.0804 
     12 C12        31.6819   24.0746    5.7407 C.ar      12 UNK        -0.0824 
     13 C13        30.4588   23.5474    5.3163 C.ar      12 UNK        -0.0762 
     14 C14        30.4376   22.5905    4.2964 C.ar      12 UNK        -0.0782 
     15 C15        29.1607   24.0152    5.9579 C.3       12 UNK         0.0230 
     16 S16        28.3574   25.3259    4.9832 S.3       12 UNK        -0.2608 
     17 C17        29.4799   26.7430    5.2770 C.3       12 UNK        -0.0989 
     18 CA         29.1041   28.0163    4.4749 C.3       5 UNK         0.0716 
     19 N          29.0454   27.7241    3.0441 N.am      5 UNK        -0.4135 
     20 C          29.8581   28.1946    2.0935 C.2       4 UNK         0.5031 
     21 O          30.8233   28.9323    2.3041 O.2       4 UNK        -0.5229 
     22 CA         29.5423   27.7612    0.6473 C.3       4 UNK         0.0329 
     23 CB         30.5568   26.7090    0.1707 C.3       4 UNK        -0.2001 
     24 N          28.1894   27.2274    0.4334 N.am      4 UNK        -0.4303 
     25 C          27.0348   27.8824    0.6214 C.2       3 UNK         0.5044 
     26 O          26.9704   29.0038    1.1259 O.2       3 UNK        -0.5152 
     27 CA         25.7293   27.1478    0.2549 C.3       3 UNK         0.0319 
     28 CB         24.6789   28.1002   -0.3538 C.3       3 UNK        -0.2001 
     29 N          25.9210   25.9556   -0.5833 N.am      3 UNK        -0.4354 
     30 C          26.3816   25.8952   -1.8415 C.2       2 UNK         0.4964 
     31 O          26.7141   26.8770   -2.5068 O.2       2 UNK        -0.5047 
     32 CA         26.5475   24.4807   -2.4260 C.3       2 UNK         0.0288 
     33 CB         26.4182   24.4681   -3.9602 C.3       2 UNK        -0.2113 
     34 N          27.8370   23.8919   -2.0574 N.am      2 UNK        -0.4145 
     35 C          28.2094   23.4970   -0.8323 C.2       1 UNK         0.5006 
     36 O          27.4814   23.5945    0.1578 O.2       1 UNK        -0.5103 
     37 C          27.7968   28.6736    4.9817 C.2       5 UNK         0.5055 
     38 O          27.6337   28.8059    6.1967 O.2       5 UNK        -0.5220 
     39 N          26.8850   29.0575    4.0725 N.am      6 UNK        -0.4450 
     40 CA         25.5797   29.6440    4.3934 C.3       6 UNK         0.0367 
     41 CB         24.4616   28.6767    3.9675 C.3       6 UNK        -0.1929 
     42 C          25.4038   31.0142    3.7250 C.2       6 UNK         0.5070 
     43 O          25.0772   31.9844    4.4084 O.2       6 UNK        -0.5237 
     44 N          25.6341   31.0766    2.4075 N.am      7 UNK        -0.4739 
     45 CA         25.5924   32.3005    1.5997 C.3       7 UNK         0.0276 
     46 CB         25.0600   31.9435    0.2014 C.3       7 UNK        -0.1927 
     47 C          26.9745   32.9716    1.4929 C.2       7 UNK         0.5013 
     48 O          27.0743   34.0776    0.9600 O.2       7 UNK        -0.5193 
     49 N          28.0090   32.2902    1.9906 N.am      8 UNK        -0.4253 
     50 CA         29.4032   32.7050    2.0414 C.3       8 UNK         0.0242 
     51 CB         30.1046   32.2894    0.7321 C.3       8 UNK        -0.2000 
     52 C          30.0395   32.0436    3.2725 C.2       8 UNK         0.4948 
     53 O          29.3449   31.3618    4.0305 O.2       8 UNK        -0.5275 
     54 N          31.3492   32.2384    3.4408 N.am      9 UNK        -0.4246 
     55 CA         32.1709   31.5580    4.4382 C.3       9 UNK         0.0261 
     56 CB         32.3902   32.4798    5.6531 C.3       9 UNK        -0.1959 
     57 C          33.4733   31.1336    3.7514 C.2       9 UNK         0.5033 
     58 O          34.5498   31.6142    4.1122 O.2       9 UNK        -0.5390 
     59 N          33.3450   30.2688    2.7340 N.am      10 UNK        -0.4215 
     60 CA         34.4330   29.8457    1.8414 C.3       10 UNK         0.0240 
     61 CB         33.8602   28.9319    0.7478 C.3       10 UNK        -0.1982 
     62 C          35.6082   29.1484    2.5498 C.2       10 UNK         0.4970 
     63 O          36.7386   29.2325    2.0679 O.2       10 UNK        -0.4916 
     64 N          35.3202   28.4864    3.6755 N.am      11 UNK        -0.4279 
     65 CA         36.3046   27.8241    4.5430 C.3       11 UNK         0.1003 
     66 C          37.1146   28.7998    5.4476 C.2       11 UNK         0.5709 
     67 N          36.8023   30.0910    5.4981 N.am      11 UNK        -0.7358 
     68 O          38.0565   28.3758    6.1133 O.2       11 UNK        -0.4999 
     69 C69        35.6540   26.6883    5.3768 C.3       12 UNK        -0.0954 
     70 S70        34.7497   25.4966    4.3352 S.3       12 UNK        -0.2268 
     71 C71        34.1964   24.2859    5.5716 C.3       12 UNK         0.0203 
     72 H72        30.0117   19.5110   -2.8737 H         1 UNK         0.0888 
     73 H73        29.2998   20.2232   -4.3234 H         1 UNK         0.0888 
     74 H74        31.0480   20.2761   -4.0797 H         1 UNK         0.0888 
     75 H75        29.6977   20.7988   -1.0710 H         1 UNK         0.3017 
     76 H76        30.3227   23.6258   -1.0608 H         1 UNK         0.0873 
     77 H77        29.9096   23.4617    1.3869 H         1 UNK         0.0745 
     78 H78        29.2916   21.8378    1.1954 H         1 UNK         0.0745 
     79 H79        30.7230   20.5008    2.6508 H         1 UNK         0.0705 
     80 H80        32.4657   20.4645    2.6905 H         1 UNK         0.0705 
     81 H81        33.7685   22.3877    3.6622 H         1 UNK         0.1334 
     82 H82        31.7014   24.8211    6.5232 H         1 UNK         0.1417 
     83 H83        29.4921   22.1861    3.9610 H         1 UNK         0.1562 
     84 H84        29.3374   24.3718    6.9740 H         1 UNK         0.0748 
     85 H85        28.4732   23.1728    6.0479 H         1 UNK         0.0748 
     86 H86        30.4896   26.4465    4.9920 H         1 UNK         0.0940 
     87 H87        29.5240   26.9520    6.3476 H         1 UNK         0.0940 
     88 H88        29.8844   28.7578    4.6565 H         1 UNK         0.0703 
     89 H89        28.3194   27.0797    2.7677 H         1 UNK         0.3081 
     90 H90        29.6442   28.6488    0.0199 H         1 UNK         0.0719 
     91 H91        31.5743   27.0929    0.2279 H         1 UNK         0.0809 
     92 H92        30.3820   26.4272   -0.8679 H         1 UNK         0.0809 
     93 H93        30.5170   25.8049    0.7793 H         1 UNK         0.0809 
     94 H94        28.1293   26.2974    0.0464 H         1 UNK         0.2990 
     95 H95        25.3258   26.7791    1.1988 H         1 UNK         0.0690 
     96 H96        23.7605   27.5700   -0.6054 H         1 UNK         0.0788 
     97 H97        25.0461   28.5846   -1.2590 H         1 UNK         0.0788 
     98 H98        24.4104   28.8902    0.3482 H         1 UNK         0.0788 
     99 H99        25.7723   25.0712   -0.1110 H         1 UNK         0.2993 
    100 H100       25.7524   23.8507   -2.0206 H         1 UNK         0.0949 
    101 H101       25.4718   24.9092   -4.2761 H         1 UNK         0.0767 
    102 H102       27.2187   25.0332   -4.4397 H         1 UNK         0.0767 
    103 H103       26.4479   23.4508   -4.3514 H         1 UNK         0.0767 
    104 H104       28.5056   23.7449   -2.8089 H         1 UNK         0.3013 
    105 H105       27.1178   28.9856    3.0879 H         1 UNK         0.3121 
    106 H106       25.4872   29.8037    5.4698 H         1 UNK         0.0774 
    107 H107       23.4793   29.0917    4.1971 H         1 UNK         0.0815 
    108 H108       24.4855   28.4689    2.8979 H         1 UNK         0.0815 
    109 H109       24.5423   27.7257    4.4942 H         1 UNK         0.0815 
    110 H110       25.9492   30.2418    1.9164 H         1 UNK         0.2987 
    111 H111       24.9108   33.0228    2.0544 H         1 UNK         0.0949 
    112 H112       24.0633   31.5057    0.2567 H         1 UNK         0.0806 
    113 H113       24.9881   32.8307   -0.4293 H         1 UNK         0.0806 
    114 H114       25.7119   31.2323   -0.3081 H         1 UNK         0.0806 
    115 H115       27.8206   31.4321    2.4925 H         1 UNK         0.3010 
    116 H116       29.4590   33.7881    2.1690 H         1 UNK         0.0829 
    117 H117       29.5979   32.7072   -0.1380 H         1 UNK         0.0813 
    118 H118       31.1357   32.6416    0.6982 H         1 UNK         0.0813 
    119 H119       30.1241   31.2049    0.6156 H         1 UNK         0.0813 
    120 H120       31.8532   32.8012    2.7690 H         1 UNK         0.3038 
    121 H121       31.6803   30.6436    4.7799 H         1 UNK         0.0769 
    122 H122       32.8795   33.4125    5.3698 H         1 UNK         0.0811 
    123 H123       33.0166   31.9949    6.4029 H         1 UNK         0.0811 
    124 H124       31.4441   32.7304    6.1330 H         1 UNK         0.0811 
    125 H125       32.4189   29.8903    2.5330 H         1 UNK         0.3204 
    126 H126       34.8283   30.7451    1.3649 H         1 UNK         0.0748 
    127 H127       34.6254   28.6691    0.0161 H         1 UNK         0.0771 
    128 H128       33.4812   28.0017    1.1721 H         1 UNK         0.0771 
    129 H129       33.0451   29.4146    0.2079 H         1 UNK         0.0771 
    130 H130       34.3625   28.4613    3.9896 H         1 UNK         0.2980 
    131 H131       37.0440   27.3543    3.8915 H         1 UNK         0.0545 
    132 H132       36.0387   30.4715    4.9502 H         1 UNK         0.3459 
    133 H133       37.3447   30.7020    6.0873 H         1 UNK         0.3459 
    134 H134       36.4132   26.1410    5.9387 H         1 UNK         0.0616 
    135 H135       34.9600   27.1033    6.1102 H         1 UNK         0.0616 
    136 H136       34.9575   23.5134    5.6895 H         1 UNK         0.0634 
    137 H137       34.0896   24.7694    6.5439 H         1 UNK         0.0634 
@<TRIPOS>BOND
     1    1    2 1    
     2    1   72 1    
     3    1   73 1    
     4    1   74 1    
     5    2    3 2    
     6    2    4 am   BACKBONE|DICT|INTERRES
     7    4    5 1    
     8    4   75 1    
     9    5    6 1    
    10    5   35 1    
    11    5   76 1    
    12    6    7 1    
    13    6   77 1    
    14    6   78 1    
    15    7    8 1    
    16    8    9 1    
    17    8   79 1    
    18    8   80 1    
    19    9   10 ar   
    20    9   14 ar   
    21   10   11 ar   
    22   10   81 1    
    23   11   12 ar   
    24   11   71 1    
    25   12   13 ar   
    26   12   82 1    
    27   13   14 ar   
    28   13   15 1    
    29   14   83 1    
    30   15   16 1    
    31   15   84 1    
    32   15   85 1    
    33   16   17 1    
    34   17   18 1    
    35   17   86 1    
    36   17   87 1    
    37   18   19 1    
    38   18   37 1    
    39   18   88 1    
    40   19   20 am   BACKBONE|DICT|INTERRES
    41   19   89 1    
    42   20   21 2    
    43   20   22 1    
    44   22   23 1    
    45   22   24 1    
    46   22   90 1    
    47   23   91 1    
    48   23   92 1    
    49   23   93 1    
    50   24   25 am   BACKBONE|DICT|INTERRES
    51   24   94 1    
    52   25   26 2    
    53   25   27 1    
    54   27   28 1    
    55   27   29 1    
    56   27   95 1    
    57   28   96 1    
    58   28   97 1    
    59   28   98 1    
    60   29   30 am   BACKBONE|DICT|INTERRES
    61   29   99 1    
    62   30   31 2    
    63   30   32 1    
    64   32   33 1    
    65   32   34 1    
    66   32  100 1    
    67   33  101 1    
    68   33  102 1    
    69   33  103 1    
    70   34   35 am   BACKBONE|DICT|INTERRES
    71   34  104 1    
    72   35   36 2    
    73   37   38 2    
    74   37   39 am   BACKBONE|DICT|INTERRES
    75   39   40 1    
    76   39  105 1    
    77   40   41 1    
    78   40   42 1    
    79   40  106 1    
    80   41  107 1    
    81   41  108 1    
    82   41  109 1    
    83   42   43 2    
    84   42   44 am   BACKBONE|DICT|INTERRES
    85   44   45 1    
    86   44  110 1    
    87   45   46 1    
    88   45   47 1    
    89   45  111 1    
    90   46  112 1    
    91   46  113 1    
    92   46  114 1    
    93   47   48 2    
    94   47   49 am   BACKBONE|DICT|INTERRES
    95   49   50 1    
    96   49  115 1    
    97   50   51 1    
    98   50   52 1    
    99   50  116 1    
   100   51  117 1    
   101   51  118 1    
   102   51  119 1    
   103   52   53 2    
   104   52   54 am   BACKBONE|DICT|INTERRES
   105   54   55 1    
   106   54  120 1    
   107   55   56 1    
   108   55   57 1    
   109   55  121 1    
   110   56  122 1    
   111   56  123 1    
   112   56  124 1    
   113   57   58 2    
   114   57   59 am   BACKBONE|DICT|INTERRES
   115   59   60 1    
   116   59  125 1    
   117   60   61 1    
   118   60   62 1    
   119   60  126 1    
   120   61  127 1    
   121   61  128 1    
   122   61  129 1    
   123   62   63 2    
   124   62   64 am   BACKBONE|DICT|INTERRES
   125   64   65 1    
   126   64  130 1    
   127   65   66 1    
   128   65   69 1    
   129   65  131 1    
   130   66   67 am   BACKBONE|DICT|INTERRES
   131   66   68 2    
   132   67  132 1    
   133   67  133 1    
   134   69   70 1    
   135   69  134 1    
   136   69  135 1    
   137   70   71 1    
   138   71  136 1    
   139   71  137 1    
@<TRIPOS>SUBSTRUCTURE
     1 UNK         1 GROUP             0       ****    0 ROOT    
