@<TRIPOS>MOLECULE
3R136
137   139    1
SMALL
USER_CHARGES


@<TRIPOS>ATOM
      1 CA         29.9555   23.8733   -4.5398 C.3       0 UNK        -0.1979 
      2 C          29.3758   23.7449   -3.1388 C.2       0 UNK         0.4864 
      3 O          28.8089   22.7020   -2.8103 O.2       0 UNK        -0.5359 
      4 N          29.5134   24.8009   -2.3225 N.am      1 UNK        -0.4318 
      5 CA         29.0562   24.8963   -0.9250 C.3       1 UNK         0.0824 
      6 C6         29.8125   23.9474    0.0462 C.3       12 UNK        -0.0944 
      7 S7         31.6165   24.2006   -0.0373 S.3       12 UNK        -0.2672 
      8 C8         32.2415   22.7183    0.8080 C.3       12 UNK         0.0333 
      9 C9         32.4952   22.9844    2.2834 C.ar      12 UNK        -0.0807 
     10 C10        33.6898   23.5943    2.6816 C.ar      12 UNK        -0.0894 
     11 C11        33.9607   23.8115    4.0353 C.ar      12 UNK        -0.0804 
     12 C12        33.0283   23.4070    4.9921 C.ar      12 UNK        -0.0824 
     13 C13        31.8121   22.8349    4.6060 C.ar      12 UNK        -0.0762 
     14 C14        31.5539   22.6130    3.2493 C.ar      12 UNK        -0.0782 
     15 C15        30.7741   22.4881    5.6659 C.3       12 UNK         0.0230 
     16 S16        29.3472   23.6314    5.6766 S.3       12 UNK        -0.2608 
     17 C17        30.1059   25.2783    5.4421 C.3       12 UNK        -0.0989 
     18 CA         29.7133   25.8560    4.0592 C.3       5 UNK         0.0716 
     19 N          28.3724   26.4393    4.1138 N.am      5 UNK        -0.4135 
     20 C          27.6475   26.8432    3.0667 C.2       4 UNK         0.5031 
     21 O          27.9999   26.7164    1.8918 O.2       4 UNK        -0.5229 
     22 CA         26.3304   27.5480    3.4041 C.3       4 UNK         0.0329 
     23 CB         26.5794   29.0285    3.7451 C.3       4 UNK        -0.2001 
     24 N          25.4142   27.4501    2.2726 N.am      4 UNK        -0.4303 
     25 C          24.0796   27.4669    2.3493 C.2       3 UNK         0.5044 
     26 O          23.4665   27.5841    3.4115 O.2       3 UNK        -0.5152 
     27 CA         23.2671   27.3164    1.0462 C.3       3 UNK         0.0319 
     28 CB         22.8793   28.6967    0.4786 C.3       3 UNK        -0.2001 
     29 N          23.8708   26.4591    0.0128 N.am      3 UNK        -0.4354 
     30 C          24.9803   26.6750   -0.7055 C.2       2 UNK         0.4964 
     31 O          25.6919   27.6754   -0.5963 O.2       2 UNK        -0.5047 
     32 CA         25.3596   25.5897   -1.7234 C.3       2 UNK         0.0288 
     33 CB         24.8671   25.9703   -3.1288 C.3       2 UNK        -0.2113 
     34 N          26.8103   25.4199   -1.7530 N.am      2 UNK        -0.4145 
     35 C          27.5188   24.7888   -0.8054 C.2       1 UNK         0.5006 
     36 O          27.0032   24.1511    0.1160 O.2       1 UNK        -0.5103 
     37 C          30.7242   26.9016    3.5448 C.2       5 UNK         0.5055 
     38 O          31.1204   27.7783    4.3135 O.2       5 UNK        -0.5220 
     39 N          31.0827   26.7742    2.2580 N.am      6 UNK        -0.4450 
     40 CA         31.8718   27.6805    1.4113 C.3       6 UNK         0.0367 
     41 CB         33.1650   28.1794    2.0818 C.3       6 UNK        -0.1929 
     42 C          31.0523   28.7987    0.7363 C.2       6 UNK         0.5070 
     43 O          31.6491   29.7266    0.1868 O.2       6 UNK        -0.5237 
     44 N          29.7177   28.6547    0.7107 N.am      7 UNK        -0.4739 
     45 CA         28.7271   29.4536   -0.0224 C.3       7 UNK         0.0276 
     46 CB         28.7908   29.1317   -1.5314 C.3       7 UNK        -0.1927 
     47 C          28.7872   30.9635    0.2759 C.2       7 UNK         0.5013 
     48 O          28.1037   31.4269    1.1889 O.2       7 UNK        -0.5193 
     49 N          29.5747   31.7050   -0.5159 N.am      8 UNK        -0.4253 
     50 CA         29.8199   33.1394   -0.3486 C.3       8 UNK         0.0242 
     51 CB         30.3908   33.7093   -1.6574 C.3       8 UNK        -0.2000 
     52 C          30.7572   33.4545    0.8317 C.2       8 UNK         0.4948 
     53 O          30.6821   34.5571    1.3767 O.2       8 UNK        -0.5275 
     54 N          31.6141   32.4950    1.2013 N.am      9 UNK        -0.4246 
     55 CA         32.4567   32.5278    2.3952 C.3       9 UNK         0.0261 
     56 CB         33.8622   32.0306    2.0113 C.3       9 UNK        -0.1959 
     57 C          31.8210   31.6575    3.4938 C.2       9 UNK         0.5033 
     58 O          30.7550   31.0758    3.2823 O.2       9 UNK        -0.5390 
     59 N          32.4799   31.5836    4.6543 N.am      10 UNK        -0.4215 
     60 CA         32.0607   30.7582    5.7823 C.3       10 UNK         0.0240 
     61 CB         31.4107   31.6445    6.8606 C.3       10 UNK        -0.1982 
     62 C          33.2835   30.0164    6.3264 C.2       10 UNK         0.4970 
     63 O          34.1825   30.6640    6.8678 O.2       10 UNK        -0.4916 
     64 N          33.2978   28.6861    6.1852 N.am      11 UNK        -0.4279 
     65 CA         34.2454   27.8036    6.8868 C.3       11 UNK         0.1003 
     66 C          33.9706   27.7698    8.4165 C.2       11 UNK         0.5709 
     67 N          35.0089   27.6361    9.2304 N.am      11 UNK        -0.7358 
     68 O          32.8274   27.8230    8.8676 O.2       11 UNK        -0.4999 
     69 C69        34.2399   26.3675    6.3042 C.3       12 UNK        -0.0954 
     70 S70        35.0632   26.2756    4.6830 S.3       12 UNK        -0.2268 
     71 C71        35.2602   24.4776    4.4655 C.3       12 UNK         0.0203 
     72 H72        29.1690   23.7511   -5.2840 H         1 UNK         0.0888 
     73 H73        30.4268   24.8428   -4.7004 H         1 UNK         0.0888 
     74 H74        30.7058   23.1008   -4.7064 H         1 UNK         0.0888 
     75 H75        30.0061   25.6136   -2.6657 H         1 UNK         0.3017 
     76 H76        29.2849   25.9155   -0.6093 H         1 UNK         0.0873 
     77 H77        29.4913   24.1105    1.0762 H         1 UNK         0.0745 
     78 H78        29.5838   22.9061   -0.1868 H         1 UNK         0.0745 
     79 H79        33.1746   22.4151    0.3307 H         1 UNK         0.0705 
     80 H80        31.5525   21.8829    0.6752 H         1 UNK         0.0705 
     81 H81        34.4106   23.8983    1.9346 H         1 UNK         0.1334 
     82 H82        33.2360   23.5713    6.0405 H         1 UNK         0.1417 
     83 H83        30.6183   22.1612    2.9481 H         1 UNK         0.1562 
     84 H84        31.2268   22.4902    6.6588 H         1 UNK         0.0748 
     85 H85        30.4123   21.4721    5.5019 H         1 UNK         0.0748 
     86 H86        31.1847   25.2105    5.5550 H         1 UNK         0.0940 
     87 H87        29.7849   25.9386    6.2499 H         1 UNK         0.0940 
     88 H88        29.6936   25.0371    3.3368 H         1 UNK         0.0703 
     89 H89        28.0087   26.6046    5.0404 H         1 UNK         0.3081 
     90 H90        25.8883   27.0447    4.2669 H         1 UNK         0.0719 
     91 H91        27.0148   29.5650    2.9012 H         1 UNK         0.0809 
     92 H92        25.6545   29.5351    4.0211 H         1 UNK         0.0809 
     93 H93        27.2676   29.1323    4.5849 H         1 UNK         0.0809 
     94 H94        25.8536   27.3544    1.3607 H         1 UNK         0.2990 
     95 H95        22.3401   26.8132    1.3262 H         1 UNK         0.0690 
     96 H96        22.2476   28.6002   -0.4044 H         1 UNK         0.0788 
     97 H97        23.7540   29.2868    0.2037 H         1 UNK         0.0788 
     98 H98        22.3204   29.2755    1.2152 H         1 UNK         0.0788 
     99 H99        23.3794   25.5896   -0.1450 H         1 UNK         0.2993 
    100 H100       24.9007   24.6417   -1.4332 H         1 UNK         0.0949 
    101 H101       25.2945   26.9163   -3.4647 H         1 UNK         0.0767 
    102 H102       25.1269   25.2052   -3.8609 H         1 UNK         0.0767 
    103 H103       23.7818   26.0792   -3.1456 H         1 UNK         0.0767 
    104 H104       27.3086   25.9285   -2.4676 H         1 UNK         0.3013 
    105 H105       30.7018   25.9833    1.7567 H         1 UNK         0.3121 
    106 H106       32.1970   27.0567    0.5783 H         1 UNK         0.0774 
    107 H107       33.8034   28.6914    1.3622 H         1 UNK         0.0815 
    108 H108       32.9674   28.8732    2.8982 H         1 UNK         0.0815 
    109 H109       33.7404   27.3432    2.4706 H         1 UNK         0.0815 
    110 H110       29.3124   27.8808    1.2316 H         1 UNK         0.2987 
    111 H111       27.7516   29.1198    0.3351 H         1 UNK         0.0949 
    112 H112       28.5242   28.0917   -1.7158 H         1 UNK         0.0806 
    113 H113       28.0821   29.7426   -2.0924 H         1 UNK         0.0806 
    114 H114       29.7820   29.2993   -1.9535 H         1 UNK         0.0806 
    115 H115       30.1301   31.2236   -1.2090 H         1 UNK         0.3010 
    116 H116       28.8646   33.6300   -0.1494 H         1 UNK         0.0829 
    117 H117       29.7055   33.5539   -2.4909 H         1 UNK         0.0813 
    118 H118       30.5587   34.7840   -1.5737 H         1 UNK         0.0813 
    119 H119       31.3458   33.2497   -1.9157 H         1 UNK         0.0813 
    120 H120       31.5436   31.5863    0.7490 H         1 UNK         0.3038 
    121 H121       32.5380   33.5467    2.7794 H         1 UNK         0.0769 
    122 H122       34.5460   32.0510    2.8602 H         1 UNK         0.0811 
    123 H123       34.3001   32.6583    1.2349 H         1 UNK         0.0811 
    124 H124       33.8373   31.0098    1.6326 H         1 UNK         0.0811 
    125 H125       33.3666   32.0576    4.7632 H         1 UNK         0.3204 
    126 H126       31.3197   30.0213    5.4703 H         1 UNK         0.0748 
    127 H127       31.1201   31.0510    7.7286 H         1 UNK         0.0771 
    128 H128       32.0880   32.4253    7.2088 H         1 UNK         0.0771 
    129 H129       30.5102   32.1280    6.4814 H         1 UNK         0.0771 
    130 H130       32.5382   28.2371    5.6823 H         1 UNK         0.2980 
    131 H131       35.2453   28.2205    6.7485 H         1 UNK         0.0545 
    132 H132       34.8494   27.5973   10.2250 H         1 UNK         0.3459 
    133 H133       35.9495   27.5792    8.8717 H         1 UNK         0.3459 
    134 H134       33.2191   25.9992    6.2139 H         1 UNK         0.0616 
    135 H135       34.7611   25.6774    6.9709 H         1 UNK         0.0616 
    136 H136       35.6312   24.0296    5.3884 H         1 UNK         0.0634 
    137 H137       36.0314   24.3028    3.7139 H         1 UNK         0.0634 
@<TRIPOS>BOND
     1    1    2 1    
     2    1   72 1    
     3    1   73 1    
     4    1   74 1    
     5    2    3 2    
     6    2    4 am   BACKBONE|DICT|INTERRES
     7    4    5 1    
     8    4   75 1    
     9    5    6 1    
    10    5   35 1    
    11    5   76 1    
    12    6    7 1    
    13    6   77 1    
    14    6   78 1    
    15    7    8 1    
    16    8    9 1    
    17    8   79 1    
    18    8   80 1    
    19    9   10 ar   
    20    9   14 ar   
    21   10   11 ar   
    22   10   81 1    
    23   11   12 ar   
    24   11   71 1    
    25   12   13 ar   
    26   12   82 1    
    27   13   14 ar   
    28   13   15 1    
    29   14   83 1    
    30   15   16 1    
    31   15   84 1    
    32   15   85 1    
    33   16   17 1    
    34   17   18 1    
    35   17   86 1    
    36   17   87 1    
    37   18   19 1    
    38   18   37 1    
    39   18   88 1    
    40   19   20 am   BACKBONE|DICT|INTERRES
    41   19   89 1    
    42   20   21 2    
    43   20   22 1    
    44   22   23 1    
    45   22   24 1    
    46   22   90 1    
    47   23   91 1    
    48   23   92 1    
    49   23   93 1    
    50   24   25 am   BACKBONE|DICT|INTERRES
    51   24   94 1    
    52   25   26 2    
    53   25   27 1    
    54   27   28 1    
    55   27   29 1    
    56   27   95 1    
    57   28   96 1    
    58   28   97 1    
    59   28   98 1    
    60   29   30 am   BACKBONE|DICT|INTERRES
    61   29   99 1    
    62   30   31 2    
    63   30   32 1    
    64   32   33 1    
    65   32   34 1    
    66   32  100 1    
    67   33  101 1    
    68   33  102 1    
    69   33  103 1    
    70   34   35 am   BACKBONE|DICT|INTERRES
    71   34  104 1    
    72   35   36 2    
    73   37   38 2    
    74   37   39 am   BACKBONE|DICT|INTERRES
    75   39   40 1    
    76   39  105 1    
    77   40   41 1    
    78   40   42 1    
    79   40  106 1    
    80   41  107 1    
    81   41  108 1    
    82   41  109 1    
    83   42   43 2    
    84   42   44 am   BACKBONE|DICT|INTERRES
    85   44   45 1    
    86   44  110 1    
    87   45   46 1    
    88   45   47 1    
    89   45  111 1    
    90   46  112 1    
    91   46  113 1    
    92   46  114 1    
    93   47   48 2    
    94   47   49 am   BACKBONE|DICT|INTERRES
    95   49   50 1    
    96   49  115 1    
    97   50   51 1    
    98   50   52 1    
    99   50  116 1    
   100   51  117 1    
   101   51  118 1    
   102   51  119 1    
   103   52   53 2    
   104   52   54 am   BACKBONE|DICT|INTERRES
   105   54   55 1    
   106   54  120 1    
   107   55   56 1    
   108   55   57 1    
   109   55  121 1    
   110   56  122 1    
   111   56  123 1    
   112   56  124 1    
   113   57   58 2    
   114   57   59 am   BACKBONE|DICT|INTERRES
   115   59   60 1    
   116   59  125 1    
   117   60   61 1    
   118   60   62 1    
   119   60  126 1    
   120   61  127 1    
   121   61  128 1    
   122   61  129 1    
   123   62   63 2    
   124   62   64 am   BACKBONE|DICT|INTERRES
   125   64   65 1    
   126   64  130 1    
   127   65   66 1    
   128   65   69 1    
   129   65  131 1    
   130   66   67 am   BACKBONE|DICT|INTERRES
   131   66   68 2    
   132   67  132 1    
   133   67  133 1    
   134   69   70 1    
   135   69  134 1    
   136   69  135 1    
   137   70   71 1    
   138   71  136 1    
   139   71  137 1    
@<TRIPOS>SUBSTRUCTURE
     1 UNK         1 GROUP             0       ****    0 ROOT    
