@<TRIPOS>MOLECULE
3R136
137   139    1
SMALL
USER_CHARGES


@<TRIPOS>ATOM
      1 CA         29.9228   27.1089   -1.4205 C.3       0 UNK        -0.1979 
      2 C          29.5954   25.9420   -0.5032 C.2       0 UNK         0.4864 
      3 O          28.4257   25.7491   -0.1689 O.2       0 UNK        -0.5359 
      4 N          30.6132   25.1742   -0.0859 N.am      1 UNK        -0.4318 
      5 CA         30.5126   23.9866    0.7748 C.3       1 UNK         0.0824 
      6 C6         31.9093   23.3395    0.9937 C.3       12 UNK        -0.0944 
      7 S7         31.8987   21.7573    1.9187 S.3       12 UNK        -0.2672 
      8 C8         32.3444   22.2699    3.6071 C.3       12 UNK         0.0333 
      9 C9         31.3712   23.2924    4.1746 C.ar      12 UNK        -0.0807 
     10 C10        31.8113   24.5876    4.4550 C.ar      12 UNK        -0.0894 
     11 C11        30.9256   25.5454    4.9536 C.ar      12 UNK        -0.0804 
     12 C12        29.5965   25.1927    5.1992 C.ar      12 UNK        -0.0824 
     13 C13        29.1394   23.9021    4.9145 C.ar      12 UNK        -0.0762 
     14 C14        30.0347   22.9522    4.4106 C.ar      12 UNK        -0.0782 
     15 C15        27.6828   23.5308    5.1544 C.3       12 UNK         0.0230 
     16 S16        26.6175   24.0144    3.7559 S.3       12 UNK        -0.2608 
     17 C17        26.3660   25.7968    4.0644 C.3       12 UNK        -0.0989 
     18 CA         27.0922   26.6798    3.0124 C.3       5 UNK         0.0716 
     19 N          26.5547   26.5285    1.6532 N.am      5 UNK        -0.4135 
     20 C          25.3419   26.9111    1.2219 C.2       4 UNK         0.5031 
     21 O          24.4597   27.3634    1.9525 O.2       4 UNK        -0.5229 
     22 CA         25.0601   26.7984   -0.2826 C.3       4 UNK         0.0329 
     23 CB         25.5342   28.0668   -1.0136 C.3       4 UNK        -0.2001 
     24 N          25.6939   25.6239   -0.8828 N.am      4 UNK        -0.4303 
     25 C          25.1094   24.8078   -1.7682 C.2       3 UNK         0.5044 
     26 O          23.9584   24.9487   -2.1845 O.2       3 UNK        -0.5152 
     27 CA         25.9541   23.6322   -2.2871 C.3       3 UNK         0.0319 
     28 CB         26.8706   24.0932   -3.4321 C.3       3 UNK        -0.2001 
     29 N          26.7669   23.0018   -1.2468 N.am      3 UNK        -0.4354 
     30 C          26.3008   22.3121   -0.1981 C.2       2 UNK         0.4964 
     31 O          25.1037   22.1027   -0.0005 O.2       2 UNK        -0.5047 
     32 CA         27.3293   21.7580    0.8078 C.3       2 UNK         0.0288 
     33 CB         27.7732   20.3328    0.4237 C.3       2 UNK        -0.2113 
     34 N          28.4852   22.6332    1.0585 N.am      2 UNK        -0.4145 
     35 C          29.4745   22.9843    0.2223 C.2       1 UNK         0.5006 
     36 O          29.5715   22.5926   -0.9439 O.2       1 UNK        -0.5103 
     37 C          27.1625   28.1736    3.4055 C.2       5 UNK         0.5055 
     38 O          26.6960   28.5631    4.4783 O.2       5 UNK        -0.5220 
     39 N          27.7237   28.9859    2.5019 N.am      6 UNK        -0.4450 
     40 CA         27.8463   30.4350    2.6065 C.3       6 UNK         0.0367 
     41 CB         26.5994   31.0695    1.9588 C.3       6 UNK        -0.1929 
     42 C          29.1247   30.8615    1.8655 C.2       6 UNK         0.5070 
     43 O          29.4423   30.2371    0.8518 O.2       6 UNK        -0.5237 
     44 N          29.8509   31.9008    2.2977 N.am      7 UNK        -0.4739 
     45 CA         29.7349   32.6998    3.5210 C.3       7 UNK         0.0276 
     46 CB         28.4912   33.6136    3.4893 C.3       7 UNK        -0.1927 
     47 C          31.0121   33.5432    3.6624 C.2       7 UNK         0.5013 
     48 O          31.7523   33.6922    2.6843 O.2       7 UNK        -0.5193 
     49 N          31.2310   34.0933    4.8671 N.am      8 UNK        -0.4253 
     50 CA         32.3403   34.9609    5.3020 C.3       8 UNK         0.0242 
     51 CB         32.3923   36.2734    4.4936 C.3       8 UNK        -0.2000 
     52 C          33.7095   34.2580    5.3309 C.2       8 UNK         0.4948 
     53 O          34.3492   34.2172    6.3831 O.2       8 UNK        -0.5275 
     54 N          34.1158   33.6976    4.1885 N.am      9 UNK        -0.4246 
     55 CA         35.2223   32.7526    4.0526 C.3       9 UNK         0.0261 
     56 CB         35.7299   32.8106    2.6005 C.3       9 UNK        -0.1959 
     57 C          34.7463   31.3339    4.4138 C.2       9 UNK         0.5033 
     58 O          33.5524   31.1192    4.6413 O.2       9 UNK        -0.5390 
     59 N          35.6685   30.3625    4.3980 N.am      10 UNK        -0.4215 
     60 CA         35.4182   28.9354    4.6576 C.3       10 UNK         0.0240 
     61 CB         36.7577   28.2501    4.9890 C.3       10 UNK        -0.1982 
     62 C          34.6437   28.2013    3.5341 C.2       10 UNK         0.4970 
     63 O          34.9068   27.0246    3.2808 O.2       10 UNK        -0.4916 
     64 N          33.6979   28.9024    2.8974 N.am      11 UNK        -0.4279 
     65 CA         32.7703   28.4276    1.8593 C.3       11 UNK         0.1003 
     66 C          33.4647   27.8843    0.5724 C.2       11 UNK         0.5709 
     67 N          34.6253   28.4078    0.1962 N.am      11 UNK        -0.7358 
     68 O          32.9534   26.9908   -0.0994 O.2       11 UNK        -0.4999 
     69 C69        31.6909   27.4647    2.4228 C.3       12 UNK        -0.0954 
     70 S70        30.8311   28.1047    3.9031 S.3       12 UNK        -0.2268 
     71 C71        31.4007   26.9679    5.2058 C.3       12 UNK         0.0203 
     72 H72        30.9015   26.9944   -1.8856 H         1 UNK         0.0888 
     73 H73        29.1799   27.1835   -2.2141 H         1 UNK         0.0888 
     74 H74        29.9167   28.0415   -0.8569 H         1 UNK         0.0888 
     75 H75        31.5533   25.4460   -0.3519 H         1 UNK         0.3017 
     76 H76        30.1564   24.3455    1.7424 H         1 UNK         0.0873 
     77 H77        32.5708   24.0454    1.4988 H         1 UNK         0.0745 
     78 H78        32.3752   23.1395    0.0270 H         1 UNK         0.0745 
     79 H79        33.3639   22.6591    3.6011 H         1 UNK         0.0705 
     80 H80        32.3558   21.3905    4.2524 H         1 UNK         0.0705 
     81 H81        32.8414   24.8592    4.2656 H         1 UNK         0.1334 
     82 H82        28.9178   25.9352    5.5936 H         1 UNK         0.1417 
     83 H83        29.6931   21.9495    4.1905 H         1 UNK         0.1562 
     84 H84        27.3210   23.9842    6.0785 H         1 UNK         0.0748 
     85 H85        27.5941   22.4528    5.2982 H         1 UNK         0.0748 
     86 H86        26.7013   26.0335    5.0744 H         1 UNK         0.0940 
     87 H87        25.2943   25.9999    4.0655 H         1 UNK         0.0940 
     88 H88        28.1305   26.3472    2.9621 H         1 UNK         0.0703 
     89 H89        27.2296   26.1956    0.9648 H         1 UNK         0.3081 
     90 H90        23.9755   26.7266   -0.3899 H         1 UNK         0.0719 
     91 H91        25.0808   28.9601   -0.5818 H         1 UNK         0.0809 
     92 H92        26.6169   28.1863   -0.9533 H         1 UNK         0.0809 
     93 H93        25.2588   28.0410   -2.0680 H         1 UNK         0.0809 
     94 H94        26.6625   25.4461   -0.6275 H         1 UNK         0.2990 
     95 H95        25.2690   22.8774   -2.6788 H         1 UNK         0.0690 
     96 H96        27.6038   24.8260   -3.0921 H         1 UNK         0.0788 
     97 H97        26.2926   24.5558   -4.2334 H         1 UNK         0.0788 
     98 H98        27.4134   23.2539   -3.8674 H         1 UNK         0.0788 
     99 H99        27.7763   23.0777   -1.3365 H         1 UNK         0.2993 
    100 H100       26.8082   21.6859    1.7638 H         1 UNK         0.0949 
    101 H101       26.9143   19.6635    0.3593 H         1 UNK         0.0767 
    102 H102       28.2753   20.3067   -0.5438 H         1 UNK         0.0767 
    103 H103       28.4543   19.9170    1.1663 H         1 UNK         0.0767 
    104 H104       28.4817   23.0622    1.9740 H         1 UNK         0.3013 
    105 H105       28.1467   28.5989    1.6679 H         1 UNK         0.3121 
    106 H106       27.9135   30.7174    3.6574 H         1 UNK         0.0774 
    107 H107       26.6861   32.1519    1.8753 H         1 UNK         0.0815 
    108 H108       26.4389   30.6891    0.9493 H         1 UNK         0.0815 
    109 H109       25.7021   30.8562    2.5399 H         1 UNK         0.0815 
    110 H110       30.6719   32.1630    1.7644 H         1 UNK         0.2987 
    111 H111       29.6909   32.0316    4.3835 H         1 UNK         0.0949 
    112 H112       27.5823   33.0705    3.7400 H         1 UNK         0.0806 
    113 H113       28.5637   34.4210    4.2194 H         1 UNK         0.0806 
    114 H114       28.3567   34.0791    2.5123 H         1 UNK         0.0806 
    115 H115       30.5670   33.8759    5.5977 H         1 UNK         0.3010 
    116 H116       32.1110   35.2309    6.3343 H         1 UNK         0.0829 
    117 H117       31.4446   36.8090    4.5487 H         1 UNK         0.0813 
    118 H118       33.1633   36.9387    4.8845 H         1 UNK         0.0813 
    119 H119       32.6182   36.1025    3.4408 H         1 UNK         0.0813 
    120 H120       33.4478   33.7222    3.4210 H         1 UNK         0.3038 
    121 H121       36.0312   33.0338    4.7302 H         1 UNK         0.0769 
    122 H122       36.0275   33.8234    2.3276 H         1 UNK         0.0811 
    123 H123       36.6022   32.1729    2.4542 H         1 UNK         0.0811 
    124 H124       34.9650   32.4874    1.8926 H         1 UNK         0.0811 
    125 H125       36.6208   30.6105    4.1694 H         1 UNK         0.3204 
    126 H126       34.7891   28.8684    5.5479 H         1 UNK         0.0748 
    127 H127       36.6069   27.2113    5.2863 H         1 UNK         0.0771 
    128 H128       37.4321   28.2498    4.1317 H         1 UNK         0.0771 
    129 H129       37.2647   28.7464    5.8168 H         1 UNK         0.0771 
    130 H130       33.5122   29.8338    3.2567 H         1 UNK         0.2980 
    131 H131       32.2413   29.3202    1.5237 H         1 UNK         0.0545 
    132 H132       35.0602   29.1351    0.7399 H         1 UNK         0.3459 
    133 H133       35.0750   28.0575   -0.6345 H         1 UNK         0.3459 
    134 H134       30.9199   27.2974    1.6727 H         1 UNK         0.0616 
    135 H135       32.1335   26.4915    2.6251 H         1 UNK         0.0616 
    136 H136       31.0199   27.3146    6.1674 H         1 UNK         0.0634 
    137 H137       32.4884   27.0094    5.2734 H         1 UNK         0.0634 
@<TRIPOS>BOND
     1    1    2 1    
     2    1   72 1    
     3    1   73 1    
     4    1   74 1    
     5    2    3 2    
     6    2    4 am   BACKBONE|DICT|INTERRES
     7    4    5 1    
     8    4   75 1    
     9    5    6 1    
    10    5   35 1    
    11    5   76 1    
    12    6    7 1    
    13    6   77 1    
    14    6   78 1    
    15    7    8 1    
    16    8    9 1    
    17    8   79 1    
    18    8   80 1    
    19    9   10 ar   
    20    9   14 ar   
    21   10   11 ar   
    22   10   81 1    
    23   11   12 ar   
    24   11   71 1    
    25   12   13 ar   
    26   12   82 1    
    27   13   14 ar   
    28   13   15 1    
    29   14   83 1    
    30   15   16 1    
    31   15   84 1    
    32   15   85 1    
    33   16   17 1    
    34   17   18 1    
    35   17   86 1    
    36   17   87 1    
    37   18   19 1    
    38   18   37 1    
    39   18   88 1    
    40   19   20 am   BACKBONE|DICT|INTERRES
    41   19   89 1    
    42   20   21 2    
    43   20   22 1    
    44   22   23 1    
    45   22   24 1    
    46   22   90 1    
    47   23   91 1    
    48   23   92 1    
    49   23   93 1    
    50   24   25 am   BACKBONE|DICT|INTERRES
    51   24   94 1    
    52   25   26 2    
    53   25   27 1    
    54   27   28 1    
    55   27   29 1    
    56   27   95 1    
    57   28   96 1    
    58   28   97 1    
    59   28   98 1    
    60   29   30 am   BACKBONE|DICT|INTERRES
    61   29   99 1    
    62   30   31 2    
    63   30   32 1    
    64   32   33 1    
    65   32   34 1    
    66   32  100 1    
    67   33  101 1    
    68   33  102 1    
    69   33  103 1    
    70   34   35 am   BACKBONE|DICT|INTERRES
    71   34  104 1    
    72   35   36 2    
    73   37   38 2    
    74   37   39 am   BACKBONE|DICT|INTERRES
    75   39   40 1    
    76   39  105 1    
    77   40   41 1    
    78   40   42 1    
    79   40  106 1    
    80   41  107 1    
    81   41  108 1    
    82   41  109 1    
    83   42   43 2    
    84   42   44 am   BACKBONE|DICT|INTERRES
    85   44   45 1    
    86   44  110 1    
    87   45   46 1    
    88   45   47 1    
    89   45  111 1    
    90   46  112 1    
    91   46  113 1    
    92   46  114 1    
    93   47   48 2    
    94   47   49 am   BACKBONE|DICT|INTERRES
    95   49   50 1    
    96   49  115 1    
    97   50   51 1    
    98   50   52 1    
    99   50  116 1    
   100   51  117 1    
   101   51  118 1    
   102   51  119 1    
   103   52   53 2    
   104   52   54 am   BACKBONE|DICT|INTERRES
   105   54   55 1    
   106   54  120 1    
   107   55   56 1    
   108   55   57 1    
   109   55  121 1    
   110   56  122 1    
   111   56  123 1    
   112   56  124 1    
   113   57   58 2    
   114   57   59 am   BACKBONE|DICT|INTERRES
   115   59   60 1    
   116   59  125 1    
   117   60   61 1    
   118   60   62 1    
   119   60  126 1    
   120   61  127 1    
   121   61  128 1    
   122   61  129 1    
   123   62   63 2    
   124   62   64 am   BACKBONE|DICT|INTERRES
   125   64   65 1    
   126   64  130 1    
   127   65   66 1    
   128   65   69 1    
   129   65  131 1    
   130   66   67 am   BACKBONE|DICT|INTERRES
   131   66   68 2    
   132   67  132 1    
   133   67  133 1    
   134   69   70 1    
   135   69  134 1    
   136   69  135 1    
   137   70   71 1    
   138   71  136 1    
   139   71  137 1    
@<TRIPOS>SUBSTRUCTURE
     1 UNK         1 GROUP             0       ****    0 ROOT    
