@<TRIPOS>MOLECULE
3R136
137   139    1
SMALL
USER_CHARGES


@<TRIPOS>ATOM
      1 CA         29.3259   17.9240   -0.8878 C.3       0 UNK        -0.1979 
      2 C          29.5117   19.4275   -1.0293 C.2       0 UNK         0.4864 
      3 O          29.7199   19.9149   -2.1411 O.2       0 UNK        -0.5359 
      4 N          29.4411   20.1624    0.0892 N.am      1 UNK        -0.4318 
      5 CA         29.5963   21.6223    0.1530 C.3       1 UNK         0.0824 
      6 C6         29.7484   22.1235    1.6088 C.3       12 UNK        -0.0944 
      7 S7         31.1342   21.3417    2.5075 S.3       12 UNK        -0.2672 
      8 C8         32.2166   22.7723    2.8706 C.3       12 UNK         0.0333 
      9 C9         31.6351   23.8532    3.7894 C.ar      12 UNK        -0.0807 
     10 C10        32.3828   25.0167    3.9977 C.ar      12 UNK        -0.0894 
     11 C11        31.8841   26.0610    4.7829 C.ar      12 UNK        -0.0804 
     12 C12        30.6247   25.9380    5.3748 C.ar      12 UNK        -0.0824 
     13 C13        29.8626   24.7853    5.1754 C.ar      12 UNK        -0.0762 
     14 C14        30.3828   23.7404    4.4084 C.ar      12 UNK        -0.0782 
     15 C15        28.4618   24.6627    5.7532 C.3       12 UNK         0.0230 
     16 S16        27.2088   24.8137    4.4379 S.3       12 UNK        -0.2608 
     17 C17        26.8016   26.5917    4.4828 C.3       12 UNK        -0.0989 
     18 CA         27.7802   27.5060    3.7025 C.3       5 UNK         0.0716 
     19 N          28.0279   27.0443    2.3311 N.am      5 UNK        -0.4135 
     20 C          28.8490   27.6314    1.4463 C.2       4 UNK         0.5031 
     21 O          29.5154   28.6359    1.6926 O.2       4 UNK        -0.5229 
     22 CA         28.8819   27.0588    0.0185 C.3       4 UNK         0.0329 
     23 CB         30.0899   26.1253   -0.1484 C.3       4 UNK        -0.2001 
     24 N          27.6497   26.3800   -0.4143 N.am      4 UNK        -0.4303 
     25 C          26.4251   26.9371   -0.4209 C.2       3 UNK         0.5044 
     26 O          26.1903   28.0579    0.0346 O.2       3 UNK        -0.5152 
     27 CA         25.2547   26.1441   -1.0339 C.3       3 UNK         0.0319 
     28 CB         24.7539   26.8345   -2.3138 C.3       3 UNK        -0.2001 
     29 N          25.5565   24.7455   -1.3434 N.am      3 UNK        -0.4354 
     30 C          25.6700   23.7615   -0.4428 C.2       2 UNK         0.4964 
     31 O          25.5622   23.9330    0.7721 O.2       2 UNK        -0.5047 
     32 CA         25.9608   22.3442   -0.9788 C.3       2 UNK         0.0288 
     33 CB         25.9423   22.2263   -2.5214 C.3       2 UNK        -0.2113 
     34 N          27.2175   21.8103   -0.4443 N.am      2 UNK        -0.4145 
     35 C          28.4343   22.3727   -0.5322 C.2       1 UNK         0.5006 
     36 O          28.6586   23.4376   -1.1106 O.2       1 UNK        -0.5103 
     37 C          27.2948   28.9703    3.7871 C.2       5 UNK         0.5055 
     38 O          27.5497   29.6245    4.7992 O.2       5 UNK        -0.5220 
     39 N          26.6420   29.4765    2.7275 N.am      6 UNK        -0.4450 
     40 CA         26.1996   30.8689    2.6031 C.3       6 UNK         0.0367 
     41 CB         25.3419   31.0155    1.3363 C.3       6 UNK        -0.1929 
     42 C          27.3499   31.8954    2.5933 C.2       6 UNK         0.5070 
     43 O          27.1092   33.0615    2.9062 O.2       6 UNK        -0.5237 
     44 N          28.5735   31.4582    2.2594 N.am      7 UNK        -0.4739 
     45 CA         29.7861   32.2790    2.3035 C.3       7 UNK         0.0276 
     46 CB         30.7986   31.7197    1.2963 C.3       7 UNK        -0.1927 
     47 C          30.4109   32.3682    3.7098 C.2       7 UNK         0.5013 
     48 O          31.3833   33.1097    3.8770 O.2       7 UNK        -0.5193 
     49 N          29.8658   31.6170    4.6823 N.am      8 UNK        -0.4253 
     50 CA         30.1864   31.5539    6.1169 C.3       8 UNK         0.0242 
     51 CB         29.8951   32.9005    6.8073 C.3       8 UNK        -0.2000 
     52 C          31.6020   31.0554    6.4582 C.2       8 UNK         0.4948 
     53 O          31.7416   30.1513    7.2825 O.2       8 UNK        -0.5275 
     54 N          32.6140   31.6597    5.8331 N.am      9 UNK        -0.4246 
     55 CA         34.0322   31.3373    5.9715 C.3       9 UNK         0.0261 
     56 CB         34.6738   32.2572    7.0238 C.3       9 UNK        -0.1959 
     57 C          34.7817   31.4274    4.6335 C.2       9 UNK         0.5033 
     58 O          35.7873   30.7348    4.4748 O.2       9 UNK        -0.5390 
     59 N          34.2916   32.2280    3.6727 N.am      10 UNK        -0.4215 
     60 CA         34.8804   32.3913    2.3360 C.3       10 UNK         0.0240 
     61 CB         34.5635   33.8106    1.8273 C.3       10 UNK        -0.1982 
     62 C          34.4054   31.2925    1.3618 C.2       10 UNK         0.4970 
     63 O          34.0626   31.5854    0.2155 O.2       10 UNK        -0.4916 
     64 N          34.3504   30.0524    1.8556 N.am      11 UNK        -0.4279 
     65 CA         33.7108   28.8958    1.2127 C.3       11 UNK         0.1003 
     66 C          34.5203   28.2548    0.0494 C.2       11 UNK         0.5709 
     67 N          35.7662   28.6460   -0.1911 N.am      11 UNK        -0.7358 
     68 O          34.0042   27.3895   -0.6535 O.2       11 UNK        -0.4999 
     69 C69        33.2984   27.8332    2.2650 C.3       12 UNK        -0.0954 
     70 S70        32.3342   28.5336    3.6509 S.3       12 UNK        -0.2268 
     71 C71        32.6897   27.3364    4.9717 C.3       12 UNK         0.0203 
     72 H72        29.1571   17.6292    0.1479 H         1 UNK         0.0888 
     73 H73        28.4711   17.5945   -1.4778 H         1 UNK         0.0888 
     74 H74        30.2113   17.4012   -1.2485 H         1 UNK         0.0888 
     75 H75        29.3057   19.7014    0.9781 H         1 UNK         0.3017 
     76 H76        30.5074   21.8806   -0.3914 H         1 UNK         0.0873 
     77 H77        29.8838   23.2058    1.6191 H         1 UNK         0.0745 
     78 H78        28.8349   21.9324    2.1758 H         1 UNK         0.0745 
     79 H79        33.1341   22.3935    3.3228 H         1 UNK         0.0705 
     80 H80        32.5061   23.2295    1.9231 H         1 UNK         0.0705 
     81 H81        33.3521   25.1190    3.5292 H         1 UNK         0.1334 
     82 H82        30.2304   26.7511    5.9692 H         1 UNK         0.1417 
     83 H83        29.7780   22.8557    4.2770 H         1 UNK         0.1562 
     84 H84        28.2889   25.4035    6.5352 H         1 UNK         0.0748 
     85 H85        28.3554   23.6869    6.2296 H         1 UNK         0.0748 
     86 H86        26.7333   26.9075    5.5259 H         1 UNK         0.0940 
     87 H87        25.7924   26.6945    4.0783 H         1 UNK         0.0940 
     88 H88        28.7457   27.4828    4.2063 H         1 UNK         0.0703 
     89 H89        27.5189   26.2212    2.0423 H         1 UNK         0.3081 
     90 H90        29.0215   27.9066   -0.6552 H         1 UNK         0.0719 
     91 H91        31.0191   26.6458    0.0870 H         1 UNK         0.0809 
     92 H92        30.0247   25.2618    0.5126 H         1 UNK         0.0809 
     93 H93        30.1767   25.7624   -1.1725 H         1 UNK         0.0809 
     94 H94        27.7594   25.4437   -0.7874 H         1 UNK         0.2990 
     95 H95        24.4439   26.1616   -0.3024 H         1 UNK         0.0690 
     96 H96        24.4729   27.8703   -2.1167 H         1 UNK         0.0788 
     97 H97        23.8723   26.3350   -2.7162 H         1 UNK         0.0788 
     98 H98        25.5188   26.8473   -3.0913 H         1 UNK         0.0788 
     99 H99        25.6886   24.5150   -2.3179 H         1 UNK         0.2993 
    100 H100       25.1629   21.7092   -0.5905 H         1 UNK         0.0949 
    101 H101       26.0923   21.1920   -2.8318 H         1 UNK         0.0767 
    102 H102       24.9829   22.5428   -2.9330 H         1 UNK         0.0767 
    103 H103       26.7249   22.8223   -2.9928 H         1 UNK         0.0767 
    104 H104       27.1392   20.9495    0.0782 H         1 UNK         0.3013 
    105 H105       26.4970   28.8864    1.9133 H         1 UNK         0.3121 
    106 H106       25.5730   31.0937    3.4687 H         1 UNK         0.0774 
    107 H107       24.9510   32.0297    1.2437 H         1 UNK         0.0815 
    108 H108       25.9181   30.8044    0.4344 H         1 UNK         0.0815 
    109 H109       24.4871   30.3391    1.3531 H         1 UNK         0.0815 
    110 H110       28.7056   30.4775    2.0266 H         1 UNK         0.2987 
    111 H111       29.5349   33.2970    1.9976 H         1 UNK         0.0949 
    112 H112       31.1856   30.7519    1.6152 H         1 UNK         0.0806 
    113 H113       30.3581   31.5973    0.3069 H         1 UNK         0.0806 
    114 H114       31.6460   32.3958    1.1894 H         1 UNK         0.0806 
    115 H115       29.0947   31.0157    4.4122 H         1 UNK         0.3010 
    116 H116       29.4941   30.8199    6.5330 H         1 UNK         0.0829 
    117 H117       30.5323   33.7011    6.4303 H         1 UNK         0.0813 
    118 H118       28.8579   33.2023    6.6609 H         1 UNK         0.0813 
    119 H119       30.0636   32.8313    7.8828 H         1 UNK         0.0813 
    120 H120       32.3490   32.3692    5.1537 H         1 UNK         0.3038 
    121 H121       34.1295   30.3031    6.3095 H         1 UNK         0.0769 
    122 H122       34.5880   33.3082    6.7457 H         1 UNK         0.0811 
    123 H123       35.7350   32.0345    7.1434 H         1 UNK         0.0811 
    124 H124       34.2043   32.1290    7.9993 H         1 UNK         0.0811 
    125 H125       33.4232   32.7260    3.8275 H         1 UNK         0.3204 
    126 H126       35.9665   32.3028    2.4083 H         1 UNK         0.0748 
    127 H127       35.0244   33.9934    0.8556 H         1 UNK         0.0771 
    128 H128       33.4902   33.9702    1.7170 H         1 UNK         0.0771 
    129 H129       34.9452   34.5695    2.5105 H         1 UNK         0.0771 
    130 H130       34.6927   29.9032    2.7961 H         1 UNK         0.2980 
    131 H131       32.7905   29.2575    0.7512 H         1 UNK         0.0545 
    132 H132       36.2785   28.2263   -0.9506 H         1 UNK         0.3459 
    133 H133       36.1940   29.3603    0.3755 H         1 UNK         0.3459 
    134 H134       34.1887   27.3459    2.6661 H         1 UNK         0.0616 
    135 H135       32.6966   27.0490    1.8032 H         1 UNK         0.0616 
    136 H136       33.7581   27.1186    5.0048 H         1 UNK         0.0634 
    137 H137       32.4436   27.7931    5.9313 H         1 UNK         0.0634 
@<TRIPOS>BOND
     1    1    2 1    
     2    1   72 1    
     3    1   73 1    
     4    1   74 1    
     5    2    3 2    
     6    2    4 am   BACKBONE|DICT|INTERRES
     7    4    5 1    
     8    4   75 1    
     9    5    6 1    
    10    5   35 1    
    11    5   76 1    
    12    6    7 1    
    13    6   77 1    
    14    6   78 1    
    15    7    8 1    
    16    8    9 1    
    17    8   79 1    
    18    8   80 1    
    19    9   10 ar   
    20    9   14 ar   
    21   10   11 ar   
    22   10   81 1    
    23   11   12 ar   
    24   11   71 1    
    25   12   13 ar   
    26   12   82 1    
    27   13   14 ar   
    28   13   15 1    
    29   14   83 1    
    30   15   16 1    
    31   15   84 1    
    32   15   85 1    
    33   16   17 1    
    34   17   18 1    
    35   17   86 1    
    36   17   87 1    
    37   18   19 1    
    38   18   37 1    
    39   18   88 1    
    40   19   20 am   BACKBONE|DICT|INTERRES
    41   19   89 1    
    42   20   21 2    
    43   20   22 1    
    44   22   23 1    
    45   22   24 1    
    46   22   90 1    
    47   23   91 1    
    48   23   92 1    
    49   23   93 1    
    50   24   25 am   BACKBONE|DICT|INTERRES
    51   24   94 1    
    52   25   26 2    
    53   25   27 1    
    54   27   28 1    
    55   27   29 1    
    56   27   95 1    
    57   28   96 1    
    58   28   97 1    
    59   28   98 1    
    60   29   30 am   BACKBONE|DICT|INTERRES
    61   29   99 1    
    62   30   31 2    
    63   30   32 1    
    64   32   33 1    
    65   32   34 1    
    66   32  100 1    
    67   33  101 1    
    68   33  102 1    
    69   33  103 1    
    70   34   35 am   BACKBONE|DICT|INTERRES
    71   34  104 1    
    72   35   36 2    
    73   37   38 2    
    74   37   39 am   BACKBONE|DICT|INTERRES
    75   39   40 1    
    76   39  105 1    
    77   40   41 1    
    78   40   42 1    
    79   40  106 1    
    80   41  107 1    
    81   41  108 1    
    82   41  109 1    
    83   42   43 2    
    84   42   44 am   BACKBONE|DICT|INTERRES
    85   44   45 1    
    86   44  110 1    
    87   45   46 1    
    88   45   47 1    
    89   45  111 1    
    90   46  112 1    
    91   46  113 1    
    92   46  114 1    
    93   47   48 2    
    94   47   49 am   BACKBONE|DICT|INTERRES
    95   49   50 1    
    96   49  115 1    
    97   50   51 1    
    98   50   52 1    
    99   50  116 1    
   100   51  117 1    
   101   51  118 1    
   102   51  119 1    
   103   52   53 2    
   104   52   54 am   BACKBONE|DICT|INTERRES
   105   54   55 1    
   106   54  120 1    
   107   55   56 1    
   108   55   57 1    
   109   55  121 1    
   110   56  122 1    
   111   56  123 1    
   112   56  124 1    
   113   57   58 2    
   114   57   59 am   BACKBONE|DICT|INTERRES
   115   59   60 1    
   116   59  125 1    
   117   60   61 1    
   118   60   62 1    
   119   60  126 1    
   120   61  127 1    
   121   61  128 1    
   122   61  129 1    
   123   62   63 2    
   124   62   64 am   BACKBONE|DICT|INTERRES
   125   64   65 1    
   126   64  130 1    
   127   65   66 1    
   128   65   69 1    
   129   65  131 1    
   130   66   67 am   BACKBONE|DICT|INTERRES
   131   66   68 2    
   132   67  132 1    
   133   67  133 1    
   134   69   70 1    
   135   69  134 1    
   136   69  135 1    
   137   70   71 1    
   138   71  136 1    
   139   71  137 1    
@<TRIPOS>SUBSTRUCTURE
     1 UNK         1 GROUP             0       ****    0 ROOT    
