@<TRIPOS>MOLECULE
3R136
137   139    1
SMALL
USER_CHARGES


@<TRIPOS>ATOM
      1 CA         26.8759   20.4688    3.2338 C.3       0 UNK        -0.1979 
      2 C          27.3763   21.8998    3.1091 C.2       0 UNK         0.4864 
      3 O          27.1810   22.6951    4.0292 O.2       0 UNK        -0.5359 
      4 N          27.9976   22.2360    1.9691 N.am      1 UNK        -0.4318 
      5 CA         28.6199   23.5223    1.6073 C.3       1 UNK         0.0824 
      6 C6         29.7811   23.9532    2.5425 C.3       12 UNK        -0.0944 
      7 S7         31.1514   22.7496    2.6175 S.3       12 UNK        -0.2672 
      8 C8         32.0028   22.9974    1.0235 C.3       12 UNK         0.0333 
      9 C9         32.4642   24.4332    0.8153 C.ar      12 UNK        -0.0807 
     10 C10        33.6091   24.9107    1.4611 C.ar      12 UNK        -0.0894 
     11 C11        34.0326   26.2298    1.2685 C.ar      12 UNK        -0.0804 
     12 C12        33.3081   27.0687    0.4167 C.ar      12 UNK        -0.0824 
     13 C13        32.1636   26.6008   -0.2358 C.ar      12 UNK        -0.0762 
     14 C14        31.7475   25.2825   -0.0333 C.ar      12 UNK        -0.0782 
     15 C15        31.3725   27.5233   -1.1493 C.3       12 UNK         0.0230 
     16 S16        30.4923   28.7743   -0.1751 S.3       12 UNK        -0.2608 
     17 C17        29.4241   29.5578   -1.4341 C.3       12 UNK        -0.0989 
     18 CA         27.9088   29.2447   -1.2667 C.3       5 UNK         0.0716 
     19 N          27.5878   27.8453   -1.5489 N.am      5 UNK        -0.4135 
     20 C          27.5017   27.3411   -2.7874 C.2       4 UNK         0.5031 
     21 O          27.6756   28.0108   -3.8071 O.2       4 UNK        -0.5229 
     22 CA         27.1681   25.8507   -2.9409 C.3       4 UNK         0.0329 
     23 CB         28.4423   24.9960   -2.8388 C.3       4 UNK        -0.2001 
     24 N          26.1889   25.3970   -1.9542 N.am      4 UNK        -0.4303 
     25 C          24.8632   25.3695   -2.1567 C.2       3 UNK         0.5044 
     26 O          24.3240   25.7467   -3.1980 O.2       3 UNK        -0.5152 
     27 CA         23.9784   24.8034   -1.0287 C.3       3 UNK         0.0319 
     28 CB         23.5917   23.3467   -1.3329 C.3       3 UNK        -0.2001 
     29 N          24.6157   24.8591    0.2870 N.am      3 UNK        -0.4354 
     30 C          24.7560   25.9752    1.0146 C.2       2 UNK         0.4964 
     31 O          24.2637   27.0591    0.7012 O.2       2 UNK        -0.5047 
     32 CA         25.5992   25.8681    2.2986 C.3       2 UNK         0.0288 
     33 CB         24.6936   25.6774    3.5255 C.3       2 UNK        -0.2113 
     34 N          26.6122   24.8036    2.2826 N.am      2 UNK        -0.4145 
     35 C          27.6220   24.6844    1.4097 C.2       1 UNK         0.5006 
     36 O          27.7770   25.4443    0.4532 O.2       1 UNK        -0.5103 
     37 C          27.3814   29.6479    0.1211 C.2       5 UNK         0.5055 
     38 O          27.1751   28.7901    0.9816 O.2       5 UNK        -0.5220 
     39 N          27.2417   30.9641    0.3306 N.am      6 UNK        -0.4450 
     40 CA         26.9314   31.5723    1.6288 C.3       6 UNK         0.0367 
     41 CB         26.3422   32.9737    1.3973 C.3       6 UNK        -0.1929 
     42 C          28.1519   31.6509    2.5690 C.2       6 UNK         0.5070 
     43 O          27.9725   31.8713    3.7660 O.2       6 UNK        -0.5237 
     44 N          29.3651   31.4661    2.0271 N.am      7 UNK        -0.4739 
     45 CA         30.6381   31.4637    2.7593 C.3       7 UNK         0.0276 
     46 CB         31.7656   31.8953    1.8047 C.3       7 UNK        -0.1927 
     47 C          30.9628   30.1120    3.4280 C.2       7 UNK         0.5013 
     48 O          32.0686   29.9480    3.9456 O.2       7 UNK        -0.5193 
     49 N          30.0112   29.1688    3.4084 N.am      8 UNK        -0.4253 
     50 CA         30.0790   27.8518    4.0394 C.3       8 UNK         0.0242 
     51 CB         28.7215   27.1614    3.8571 C.3       8 UNK        -0.2000 
     52 C          30.4459   27.9408    5.5303 C.2       8 UNK         0.4948 
     53 O          29.7455   28.6156    6.2877 O.2       8 UNK        -0.5275 
     54 N          31.5553   27.2863    5.9003 N.am      9 UNK        -0.4246 
     55 CA         32.1933   27.2879    7.2245 C.3       9 UNK         0.0261 
     56 CB         31.2503   26.7247    8.3099 C.3       9 UNK        -0.1959 
     57 C          32.8241   28.6372    7.6361 C.2       9 UNK         0.5033 
     58 O          33.2644   28.7621    8.7800 O.2       9 UNK        -0.5390 
     59 N          32.9194   29.5973    6.7060 N.am      10 UNK        -0.4215 
     60 CA         33.6478   30.8611    6.8460 C.3       10 UNK         0.0240 
     61 CB         32.6591   32.0350    6.7128 C.3       10 UNK        -0.1982 
     62 C          34.7777   30.9147    5.8003 C.2       10 UNK         0.4970 
     63 O          35.0694   31.9792    5.2528 O.2       10 UNK        -0.4916 
     64 N          35.3754   29.7476    5.5303 N.am      11 UNK        -0.4279 
     65 CA         36.3858   29.5046    4.4912 C.3       11 UNK         0.1003 
     66 C          37.7874   30.1197    4.7753 C.2       11 UNK         0.5709 
     67 N          38.0760   30.5991    5.9796 N.am      11 UNK        -0.7358 
     68 O          38.6284   30.1666    3.8807 O.2       11 UNK        -0.4999 
     69 C69        36.4971   27.9874    4.1802 C.3       12 UNK        -0.0954 
     70 S70        34.9012   27.2491    3.6821 S.3       12 UNK        -0.2268 
     71 C71        35.2743   26.7494    1.9749 C.3       12 UNK         0.0203 
     72 H72        27.3375   19.9856    4.0945 H         1 UNK         0.0888 
     73 H73        25.7956   20.4601    3.3766 H         1 UNK         0.0888 
     74 H74        27.1065   19.8761    2.3487 H         1 UNK         0.0888 
     75 H75        28.0900   21.5228    1.2590 H         1 UNK         0.3017 
     76 H76        29.0494   23.3529    0.6193 H         1 UNK         0.0873 
     77 H77        30.1829   24.9245    2.2503 H         1 UNK         0.0745 
     78 H78        29.4151   24.0855    3.5610 H         1 UNK         0.0745 
     79 H79        32.8669   22.3326    0.9837 H         1 UNK         0.0705 
     80 H80        31.3464   22.6819    0.2114 H         1 UNK         0.0705 
     81 H81        34.1644   24.2587    2.1217 H         1 UNK         0.1334 
     82 H82        33.6252   28.0923    0.2695 H         1 UNK         0.1417 
     83 H83        30.8591   24.9190   -0.5296 H         1 UNK         0.1562 
     84 H84        30.6541   26.9572   -1.7437 H         1 UNK         0.0748 
     85 H85        32.0456   28.0149   -1.8531 H         1 UNK         0.0748 
     86 H86        29.7600   29.2671   -2.4306 H         1 UNK         0.0940 
     87 H87        29.5912   30.6350   -1.3871 H         1 UNK         0.0940 
     88 H88        27.3569   29.8540   -1.9862 H         1 UNK         0.0703 
     89 H89        27.4517   27.2567   -0.7325 H         1 UNK         0.3081 
     90 H90        26.7614   25.7072   -3.9445 H         1 UNK         0.0719 
     91 H91        28.9185   25.0913   -1.8643 H         1 UNK         0.0809 
     92 H92        28.2252   23.9406   -3.0039 H         1 UNK         0.0809 
     93 H93        29.1744   25.2975   -3.5892 H         1 UNK         0.0809 
     94 H94        26.5575   25.1488   -1.0423 H         1 UNK         0.2990 
     95 H95        23.0633   25.3990   -0.9976 H         1 UNK         0.0690 
     96 H96        22.9116   22.9504   -0.5786 H         1 UNK         0.0788 
     97 H97        24.4659   22.6957   -1.3743 H         1 UNK         0.0788 
     98 H98        23.0837   23.2710   -2.2956 H         1 UNK         0.0788 
     99 H99        25.0297   24.0062    0.6335 H         1 UNK         0.2993 
    100 H100       26.1243   26.8181    2.4078 H         1 UNK         0.0949 
    101 H101       23.9426   26.4666    3.5845 H         1 UNK         0.0767 
    102 H102       24.1655   24.7235    3.4918 H         1 UNK         0.0767 
    103 H103       25.2695   25.7101    4.4507 H         1 UNK         0.0767 
    104 H104       26.5922   24.1302    3.0466 H         1 UNK         0.3013 
    105 H105       27.4205   31.6030   -0.4317 H         1 UNK         0.3121 
    106 H106       26.1746   30.9628    2.1281 H         1 UNK         0.0774 
    107 H107       26.0652   33.4414    2.3432 H         1 UNK         0.0815 
    108 H108       27.0542   33.6362    0.9036 H         1 UNK         0.0815 
    109 H109       25.4413   32.9298    0.7850 H         1 UNK         0.0815 
    110 H110       29.4200   31.2583    1.0410 H         1 UNK         0.2987 
    111 H111       30.5793   32.2014    3.5625 H         1 UNK         0.0949 
    112 H112       31.9095   31.1772    0.9972 H         1 UNK         0.0806 
    113 H113       31.5587   32.8681    1.3585 H         1 UNK         0.0806 
    114 H114       32.7155   31.9813    2.3346 H         1 UNK         0.0806 
    115 H115       29.1439   29.3963    2.9452 H         1 UNK         0.3010 
    116 H116       30.8398   27.2739    3.5097 H         1 UNK         0.0829 
    117 H117       28.4975   27.0368    2.7987 H         1 UNK         0.0813 
    118 H118       28.7095   26.1762    4.3227 H         1 UNK         0.0813 
    119 H119       27.9109   27.7395    4.3030 H         1 UNK         0.0813 
    120 H120       32.0659   26.7861    5.1845 H         1 UNK         0.3038 
    121 H121       33.0311   26.5944    7.1389 H         1 UNK         0.0769 
    122 H122       30.4258   27.4044    8.5262 H         1 UNK         0.0811 
    123 H123       31.7855   26.5618    9.2462 H         1 UNK         0.0811 
    124 H124       30.8268   25.7661    8.0105 H         1 UNK         0.0811 
    125 H125       32.5452   29.4282    5.7741 H         1 UNK         0.3204 
    126 H126       34.1236   30.9256    7.8264 H         1 UNK         0.0748 
    127 H127       33.1592   32.9901    6.8780 H         1 UNK         0.0771 
    128 H128       32.2060   32.0697    5.7216 H         1 UNK         0.0771 
    129 H129       31.8553   31.9594    7.4453 H         1 UNK         0.0771 
    130 H130       35.0695   28.9297    6.0339 H         1 UNK         0.2980 
    131 H131       36.0285   29.9978    3.5851 H         1 UNK         0.0545 
    132 H132       37.3922   30.5699    6.7183 H         1 UNK         0.3459 
    133 H133       38.9862   30.9980    6.1475 H         1 UNK         0.3459 
    134 H134       37.2331   27.8111    3.3936 H         1 UNK         0.0616 
    135 H135       36.8594   27.4466    5.0564 H         1 UNK         0.0616 
    136 H136       36.0468   25.9790    1.9839 H         1 UNK         0.0634 
    137 H137       35.6891   27.6006    1.4324 H         1 UNK         0.0634 
@<TRIPOS>BOND
     1    1    2 1    
     2    1   72 1    
     3    1   73 1    
     4    1   74 1    
     5    2    3 2    
     6    2    4 am   BACKBONE|DICT|INTERRES
     7    4    5 1    
     8    4   75 1    
     9    5    6 1    
    10    5   35 1    
    11    5   76 1    
    12    6    7 1    
    13    6   77 1    
    14    6   78 1    
    15    7    8 1    
    16    8    9 1    
    17    8   79 1    
    18    8   80 1    
    19    9   10 ar   
    20    9   14 ar   
    21   10   11 ar   
    22   10   81 1    
    23   11   12 ar   
    24   11   71 1    
    25   12   13 ar   
    26   12   82 1    
    27   13   14 ar   
    28   13   15 1    
    29   14   83 1    
    30   15   16 1    
    31   15   84 1    
    32   15   85 1    
    33   16   17 1    
    34   17   18 1    
    35   17   86 1    
    36   17   87 1    
    37   18   19 1    
    38   18   37 1    
    39   18   88 1    
    40   19   20 am   BACKBONE|DICT|INTERRES
    41   19   89 1    
    42   20   21 2    
    43   20   22 1    
    44   22   23 1    
    45   22   24 1    
    46   22   90 1    
    47   23   91 1    
    48   23   92 1    
    49   23   93 1    
    50   24   25 am   BACKBONE|DICT|INTERRES
    51   24   94 1    
    52   25   26 2    
    53   25   27 1    
    54   27   28 1    
    55   27   29 1    
    56   27   95 1    
    57   28   96 1    
    58   28   97 1    
    59   28   98 1    
    60   29   30 am   BACKBONE|DICT|INTERRES
    61   29   99 1    
    62   30   31 2    
    63   30   32 1    
    64   32   33 1    
    65   32   34 1    
    66   32  100 1    
    67   33  101 1    
    68   33  102 1    
    69   33  103 1    
    70   34   35 am   BACKBONE|DICT|INTERRES
    71   34  104 1    
    72   35   36 2    
    73   37   38 2    
    74   37   39 am   BACKBONE|DICT|INTERRES
    75   39   40 1    
    76   39  105 1    
    77   40   41 1    
    78   40   42 1    
    79   40  106 1    
    80   41  107 1    
    81   41  108 1    
    82   41  109 1    
    83   42   43 2    
    84   42   44 am   BACKBONE|DICT|INTERRES
    85   44   45 1    
    86   44  110 1    
    87   45   46 1    
    88   45   47 1    
    89   45  111 1    
    90   46  112 1    
    91   46  113 1    
    92   46  114 1    
    93   47   48 2    
    94   47   49 am   BACKBONE|DICT|INTERRES
    95   49   50 1    
    96   49  115 1    
    97   50   51 1    
    98   50   52 1    
    99   50  116 1    
   100   51  117 1    
   101   51  118 1    
   102   51  119 1    
   103   52   53 2    
   104   52   54 am   BACKBONE|DICT|INTERRES
   105   54   55 1    
   106   54  120 1    
   107   55   56 1    
   108   55   57 1    
   109   55  121 1    
   110   56  122 1    
   111   56  123 1    
   112   56  124 1    
   113   57   58 2    
   114   57   59 am   BACKBONE|DICT|INTERRES
   115   59   60 1    
   116   59  125 1    
   117   60   61 1    
   118   60   62 1    
   119   60  126 1    
   120   61  127 1    
   121   61  128 1    
   122   61  129 1    
   123   62   63 2    
   124   62   64 am   BACKBONE|DICT|INTERRES
   125   64   65 1    
   126   64  130 1    
   127   65   66 1    
   128   65   69 1    
   129   65  131 1    
   130   66   67 am   BACKBONE|DICT|INTERRES
   131   66   68 2    
   132   67  132 1    
   133   67  133 1    
   134   69   70 1    
   135   69  134 1    
   136   69  135 1    
   137   70   71 1    
   138   71  136 1    
   139   71  137 1    
@<TRIPOS>SUBSTRUCTURE
     1 UNK         1 GROUP             0       ****    0 ROOT    
