@<TRIPOS>MOLECULE
3R136
137   139    1
SMALL
USER_CHARGES


@<TRIPOS>ATOM
      1 CA         30.5420   21.8981   -4.2563 C.3       0 UNK        -0.1979 
      2 C          30.5095   22.0982   -2.7483 C.2       0 UNK         0.4864 
      3 O          31.5443   22.3908   -2.1512 O.2       0 UNK        -0.5359 
      4 N          29.3318   21.9358   -2.1347 N.am      1 UNK        -0.4318 
      5 CA         29.0820   22.0991   -0.6986 C.3       1 UNK         0.0824 
      6 C6         29.5849   20.8731    0.1164 C.3       12 UNK        -0.0944 
      7 S7         29.8585   21.2124    1.8907 S.3       12 UNK        -0.2672 
      8 C8         31.6545   21.5095    1.9806 C.3       12 UNK         0.0333 
      9 C9         31.9489   22.9893    2.1638 C.ar      12 UNK        -0.0807 
     10 C10        32.0251   23.5351    3.4491 C.ar      12 UNK        -0.0894 
     11 C11        32.2684   24.8994    3.6361 C.ar      12 UNK        -0.0804 
     12 C12        32.4157   25.7182    2.5092 C.ar      12 UNK        -0.0824 
     13 C13        32.3479   25.1861    1.2179 C.ar      12 UNK        -0.0762 
     14 C14        32.1315   23.8160    1.0532 C.ar      12 UNK        -0.0782 
     15 C15        32.5143   26.0990    0.0081 C.3       12 UNK         0.0230 
     16 S16        31.1299   26.0253   -1.1824 S.3       12 UNK        -0.2608 
     17 C17        29.6384   26.1794   -0.1443 C.3       12 UNK        -0.0989 
     18 CA         29.2651   27.6441    0.2128 C.3       5 UNK         0.0716 
     19 N          27.8116   27.8234    0.2184 N.am      5 UNK        -0.4135 
     20 C          27.1353   28.9251    0.5722 C.2       4 UNK         0.5031 
     21 O          27.6631   30.0107    0.8135 O.2       4 UNK        -0.5229 
     22 CA         25.6151   28.7668    0.7560 C.3       4 UNK         0.0329 
     23 CB         24.8655   29.3474   -0.4526 C.3       4 UNK        -0.2001 
     24 N          25.1807   27.3799    0.9742 N.am      4 UNK        -0.4303 
     25 C          25.5517   26.5770    1.9818 C.2       3 UNK         0.5044 
     26 O          26.3376   26.9161    2.8668 O.2       3 UNK        -0.5152 
     27 CA         25.0042   25.1384    1.9705 C.3       3 UNK         0.0319 
     28 CB         23.4811   25.1133    2.2064 C.3       3 UNK        -0.2001 
     29 N          25.3808   24.3545    0.7825 N.am      3 UNK        -0.4354 
     30 C          25.0525   24.5536   -0.5024 C.2       2 UNK         0.4964 
     31 O          24.3643   25.4992   -0.8916 O.2       2 UNK        -0.5047 
     32 CA         25.5855   23.5275   -1.5245 C.3       2 UNK         0.0288 
     33 CB         25.2964   23.9419   -2.9806 C.3       2 UNK        -0.2113 
     34 N          27.0222   23.2517   -1.3975 N.am      2 UNK        -0.4145 
     35 C          27.5850   22.4304   -0.4966 C.2       1 UNK         0.5006 
     36 O          26.9459   21.9226    0.4264 O.2       1 UNK        -0.5103 
     37 C          29.9075   28.0610    1.5538 C.2       5 UNK         0.5055 
     38 O          30.9386   28.7333    1.5482 O.2       5 UNK        -0.5220 
     39 N          29.2663   27.6918    2.6752 N.am      6 UNK        -0.4450 
     40 CA         29.7266   28.0080    4.0274 C.3       6 UNK         0.0367 
     41 CB         28.8959   27.2269    5.0569 C.3       6 UNK        -0.1929 
     42 C          29.6977   29.5097    4.3365 C.2       6 UNK         0.5070 
     43 O          30.6141   30.0062    4.9904 O.2       6 UNK        -0.5237 
     44 N          28.6678   30.2067    3.8389 N.am      7 UNK        -0.4739 
     45 CA         28.5337   31.6594    3.9412 C.3       7 UNK         0.0276 
     46 CB         27.0814   32.0693    3.6480 C.3       7 UNK        -0.1927 
     47 C          29.5117   32.3887    3.0078 C.2       7 UNK         0.5013 
     48 O          30.1122   33.3788    3.4243 O.2       7 UNK        -0.5193 
     49 N          29.6720   31.8732    1.7798 N.am      8 UNK        -0.4253 
     50 CA         30.5886   32.3953    0.7632 C.3       8 UNK         0.0242 
     51 CB         30.3428   31.6764   -0.5733 C.3       8 UNK        -0.2000 
     52 C          32.0666   32.2934    1.1759 C.2       8 UNK         0.4948 
     53 O          32.8026   33.2697    1.0278 O.2       8 UNK        -0.5275 
     54 N          32.4701   31.1274    1.6995 N.am      9 UNK        -0.4246 
     55 CA         33.8220   30.8774    2.2083 C.3       9 UNK         0.0261 
     56 CB         34.0756   29.3636    2.2324 C.3       9 UNK        -0.1959 
     57 C          34.0705   31.4709    3.6064 C.2       9 UNK         0.5033 
     58 O          35.2331   31.6194    3.9855 O.2       9 UNK        -0.5390 
     59 N          32.9912   31.7740    4.3440 N.am      10 UNK        -0.4215 
     60 CA         32.9566   32.2240    5.7395 C.3       10 UNK         0.0240 
     61 CB         33.6027   33.6177    5.8952 C.3       10 UNK        -0.1982 
     62 C          33.5411   31.1630    6.6917 C.2       10 UNK         0.4970 
     63 O          34.4563   31.4573    7.4639 O.2       10 UNK        -0.4916 
     64 N          33.0069   29.9384    6.5959 N.am      11 UNK        -0.4279 
     65 CA         33.3680   28.7910    7.4424 C.3       11 UNK         0.1003 
     66 C          33.0201   29.0235    8.9392 C.2       11 UNK         0.5709 
     67 N          33.8338   28.5102    9.8521 N.am      11 UNK        -0.7358 
     68 O          32.0016   29.6241    9.2786 O.2       11 UNK        -0.4999 
     69 C69        32.7160   27.4771    6.9388 C.3       12 UNK        -0.0954 
     70 S70        33.2838   26.9821    5.2802 S.3       12 UNK        -0.2268 
     71 C71        32.3086   25.4520    5.0627 C.3       12 UNK         0.0203 
     72 H72        31.2338   21.0962   -4.5128 H         1 UNK         0.0888 
     73 H73        29.5615   21.6412   -4.6568 H         1 UNK         0.0888 
     74 H74        30.8805   22.8102   -4.7473 H         1 UNK         0.0888 
     75 H75        28.5245   21.6631   -2.6798 H         1 UNK         0.3017 
     76 H76        29.6321   22.9821   -0.3671 H         1 UNK         0.0873 
     77 H77        28.8834   20.0414    0.0282 H         1 UNK         0.0745 
     78 H78        30.5177   20.4963   -0.3040 H         1 UNK         0.0745 
     79 H79        32.0590   20.9461    2.8229 H         1 UNK         0.0705 
     80 H80        32.1632   21.1282    1.0944 H         1 UNK         0.0705 
     81 H81        31.8804   22.8941    4.3084 H         1 UNK         0.1334 
     82 H82        32.5732   26.7787    2.6300 H         1 UNK         0.1417 
     83 H83        32.0809   23.3998    0.0576 H         1 UNK         0.1562 
     84 H84        33.4331   25.8252   -0.5119 H         1 UNK         0.0748 
     85 H85        32.6442   27.1353    0.3191 H         1 UNK         0.0748 
     86 H86        29.7129   25.5399    0.7376 H         1 UNK         0.0940 
     87 H87        28.8426   25.7303   -0.7401 H         1 UNK         0.0940 
     88 H88        29.6485   28.3127   -0.5602 H         1 UNK         0.0703 
     89 H89        27.2613   27.0001    0.0296 H         1 UNK         0.3081 
     90 H90        25.3382   29.3409    1.6425 H         1 UNK         0.0719 
     91 H91        25.1528   30.3849   -0.6301 H         1 UNK         0.0809 
     92 H92        25.0770   28.7882   -1.3650 H         1 UNK         0.0809 
     93 H93        23.7871   29.3343   -0.2937 H         1 UNK         0.0809 
     94 H94        24.6000   26.9601    0.2515 H         1 UNK         0.2990 
     95 H95        25.4674   24.6262    2.8155 H         1 UNK         0.0690 
     96 H96        23.2214   25.6395    3.1260 H         1 UNK         0.0788 
     97 H97        23.1148   24.0914    2.3051 H         1 UNK         0.0788 
     98 H98        22.9280   25.5879    1.3954 H         1 UNK         0.0788 
     99 H99        25.9524   23.5347    0.9695 H         1 UNK         0.2993 
    100 H100       25.0406   22.5994   -1.3368 H         1 UNK         0.0949 
    101 H101       24.2274   24.0881   -3.1431 H         1 UNK         0.0767 
    102 H102       25.7968   24.8753   -3.2419 H         1 UNK         0.0767 
    103 H103       25.6231   23.1763   -3.6847 H         1 UNK         0.0767 
    104 H104       27.6167   23.6715   -2.0979 H         1 UNK         0.3013 
    105 H105       28.3773   27.2076    2.6059 H         1 UNK         0.3121 
    106 H106       30.7635   27.6849    4.1015 H         1 UNK         0.0774 
    107 H107       28.9315   26.1542    4.8665 H         1 UNK         0.0815 
    108 H108       29.2721   27.3920    6.0671 H         1 UNK         0.0815 
    109 H109       27.8490   27.5324    5.0469 H         1 UNK         0.0815 
    110 H110       27.9820   29.7206    3.2787 H         1 UNK         0.2987 
    111 H111       28.7698   31.9547    4.9664 H         1 UNK         0.0949 
    112 H112       26.7773   31.8011    2.6358 H         1 UNK         0.0806 
    113 H113       26.3880   31.5955    4.3430 H         1 UNK         0.0806 
    114 H114       26.9548   33.1479    3.7499 H         1 UNK         0.0806 
    115 H115       29.0900   31.0842    1.5090 H         1 UNK         0.3010 
    116 H116       30.3564   33.4536    0.6261 H         1 UNK         0.0829 
    117 H117       30.5500   30.6085   -0.5021 H         1 UNK         0.0813 
    118 H118       29.3104   31.7944   -0.9032 H         1 UNK         0.0813 
    119 H119       30.9834   32.0814   -1.3577 H         1 UNK         0.0813 
    120 H120       31.8181   30.3440    1.7293 H         1 UNK         0.3038 
    121 H121       34.5420   31.3319    1.5244 H         1 UNK         0.0769 
    122 H122       33.3872   28.8645    2.9133 H         1 UNK         0.0811 
    123 H123       35.0884   29.1380    2.5689 H         1 UNK         0.0811 
    124 H124       33.9554   28.9244    1.2427 H         1 UNK         0.0811 
    125 H125       32.0857   31.5714    3.9414 H         1 UNK         0.3204 
    126 H126       31.9018   32.3235    6.0009 H         1 UNK         0.0748 
    127 H127       33.4768   33.9925    6.9116 H         1 UNK         0.0771 
    128 H128       34.6729   33.5987    5.6873 H         1 UNK         0.0771 
    129 H129       33.1431   34.3422    5.2228 H         1 UNK         0.0771 
    130 H130       32.2195   29.8064    5.9665 H         1 UNK         0.2980 
    131 H131       34.4515   28.6771    7.3713 H         1 UNK         0.0545 
    132 H132       34.6646   28.0049    9.5857 H         1 UNK         0.3459 
    133 H133       33.6166   28.6370   10.8283 H         1 UNK         0.3459 
    134 H134       31.6292   27.5767    6.9227 H         1 UNK         0.0616 
    135 H135       32.9412   26.6531    7.6189 H         1 UNK         0.0616 
    136 H136       31.2839   25.6294    5.3871 H         1 UNK         0.0634 
    137 H137       32.7179   24.6984    5.7374 H         1 UNK         0.0634 
@<TRIPOS>BOND
     1    1    2 1    
     2    1   72 1    
     3    1   73 1    
     4    1   74 1    
     5    2    3 2    
     6    2    4 am   BACKBONE|DICT|INTERRES
     7    4    5 1    
     8    4   75 1    
     9    5    6 1    
    10    5   35 1    
    11    5   76 1    
    12    6    7 1    
    13    6   77 1    
    14    6   78 1    
    15    7    8 1    
    16    8    9 1    
    17    8   79 1    
    18    8   80 1    
    19    9   10 ar   
    20    9   14 ar   
    21   10   11 ar   
    22   10   81 1    
    23   11   12 ar   
    24   11   71 1    
    25   12   13 ar   
    26   12   82 1    
    27   13   14 ar   
    28   13   15 1    
    29   14   83 1    
    30   15   16 1    
    31   15   84 1    
    32   15   85 1    
    33   16   17 1    
    34   17   18 1    
    35   17   86 1    
    36   17   87 1    
    37   18   19 1    
    38   18   37 1    
    39   18   88 1    
    40   19   20 am   BACKBONE|DICT|INTERRES
    41   19   89 1    
    42   20   21 2    
    43   20   22 1    
    44   22   23 1    
    45   22   24 1    
    46   22   90 1    
    47   23   91 1    
    48   23   92 1    
    49   23   93 1    
    50   24   25 am   BACKBONE|DICT|INTERRES
    51   24   94 1    
    52   25   26 2    
    53   25   27 1    
    54   27   28 1    
    55   27   29 1    
    56   27   95 1    
    57   28   96 1    
    58   28   97 1    
    59   28   98 1    
    60   29   30 am   BACKBONE|DICT|INTERRES
    61   29   99 1    
    62   30   31 2    
    63   30   32 1    
    64   32   33 1    
    65   32   34 1    
    66   32  100 1    
    67   33  101 1    
    68   33  102 1    
    69   33  103 1    
    70   34   35 am   BACKBONE|DICT|INTERRES
    71   34  104 1    
    72   35   36 2    
    73   37   38 2    
    74   37   39 am   BACKBONE|DICT|INTERRES
    75   39   40 1    
    76   39  105 1    
    77   40   41 1    
    78   40   42 1    
    79   40  106 1    
    80   41  107 1    
    81   41  108 1    
    82   41  109 1    
    83   42   43 2    
    84   42   44 am   BACKBONE|DICT|INTERRES
    85   44   45 1    
    86   44  110 1    
    87   45   46 1    
    88   45   47 1    
    89   45  111 1    
    90   46  112 1    
    91   46  113 1    
    92   46  114 1    
    93   47   48 2    
    94   47   49 am   BACKBONE|DICT|INTERRES
    95   49   50 1    
    96   49  115 1    
    97   50   51 1    
    98   50   52 1    
    99   50  116 1    
   100   51  117 1    
   101   51  118 1    
   102   51  119 1    
   103   52   53 2    
   104   52   54 am   BACKBONE|DICT|INTERRES
   105   54   55 1    
   106   54  120 1    
   107   55   56 1    
   108   55   57 1    
   109   55  121 1    
   110   56  122 1    
   111   56  123 1    
   112   56  124 1    
   113   57   58 2    
   114   57   59 am   BACKBONE|DICT|INTERRES
   115   59   60 1    
   116   59  125 1    
   117   60   61 1    
   118   60   62 1    
   119   60  126 1    
   120   61  127 1    
   121   61  128 1    
   122   61  129 1    
   123   62   63 2    
   124   62   64 am   BACKBONE|DICT|INTERRES
   125   64   65 1    
   126   64  130 1    
   127   65   66 1    
   128   65   69 1    
   129   65  131 1    
   130   66   67 am   BACKBONE|DICT|INTERRES
   131   66   68 2    
   132   67  132 1    
   133   67  133 1    
   134   69   70 1    
   135   69  134 1    
   136   69  135 1    
   137   70   71 1    
   138   71  136 1    
   139   71  137 1    
@<TRIPOS>SUBSTRUCTURE
     1 UNK         1 GROUP             0       ****    0 ROOT    
