@<TRIPOS>MOLECULE
3R136
137   139    1
SMALL
USER_CHARGES


@<TRIPOS>ATOM
      1 CA         25.8654   19.2663    2.3411 C.3       0 UNK        -0.1979 
      2 C          27.1397   19.7915    1.6963 C.2       0 UNK         0.4864 
      3 O          27.7054   19.1251    0.8276 O.2       0 UNK        -0.5359 
      4 N          27.5990   20.9754    2.1210 N.am      1 UNK        -0.4318 
      5 CA         28.7792   21.6623    1.5857 C.3       1 UNK         0.0824 
      6 C6         29.2155   22.8427    2.4878 C.3       12 UNK        -0.0944 
      7 S7         29.6079   22.3100    4.1873 S.3       12 UNK        -0.2672 
      8 C8         30.9606   23.4515    4.6263 C.3       12 UNK         0.0333 
      9 C9         30.5533   24.9199    4.5501 C.ar      12 UNK        -0.0807 
     10 C10        31.3517   25.8317    3.8536 C.ar      12 UNK        -0.0894 
     11 C11        31.0031   27.1877    3.7881 C.ar      12 UNK        -0.0804 
     12 C12        29.8391   27.6221    4.4326 C.ar      12 UNK        -0.0824 
     13 C13        29.0315   26.7212    5.1342 C.ar      12 UNK        -0.0762 
     14 C14        29.4003   25.3751    5.1961 C.ar      12 UNK        -0.0782 
     15 C15        27.7757   27.1898    5.8561 C.3       12 UNK         0.0230 
     16 S16        26.2654   26.6456    4.9926 S.3       12 UNK        -0.2608 
     17 C17        25.7622   28.1577    4.1030 C.3       12 UNK        -0.0989 
     18 CA         26.5206   28.3732    2.7656 C.3       5 UNK         0.0716 
     19 N          26.4669   27.2240    1.8556 N.am      5 UNK        -0.4135 
     20 C          25.3976   26.7597    1.1941 C.2       4 UNK         0.5031 
     21 O          24.2502   27.1711    1.3743 O.2       4 UNK        -0.5229 
     22 CA         25.6625   25.6810    0.1189 C.3       4 UNK         0.0329 
     23 CB         24.7085   25.8240   -1.0853 C.3       4 UNK        -0.2001 
     24 N          27.0558   25.6048   -0.3546 N.am      4 UNK        -0.4303 
     25 C          27.7965   26.5919   -0.8903 C.2       3 UNK         0.5044 
     26 O          27.3987   27.7514   -1.0077 O.2       3 UNK        -0.5152 
     27 CA         29.2452   26.2698   -1.3027 C.3       3 UNK         0.0319 
     28 CB         30.2295   26.9448   -0.3339 C.3       3 UNK        -0.2001 
     29 N          29.5412   24.8367   -1.3536 N.am      3 UNK        -0.4354 
     30 C          29.1430   24.0058   -2.3272 C.2       2 UNK         0.4964 
     31 O          28.5418   24.3717   -3.3374 O.2       2 UNK        -0.5047 
     32 CA         29.4424   22.5074   -2.1283 C.3       2 UNK         0.0288 
     33 CB         30.7489   22.1219   -2.8413 C.3       2 UNK        -0.2113 
     34 N          29.5144   22.0835   -0.7225 N.am      2 UNK        -0.4145 
     35 C          28.5052   22.1694    0.1570 C.2       1 UNK         0.5006 
     36 O          27.4115   22.6767   -0.1060 O.2       1 UNK        -0.5103 
     37 C          26.1490   29.7112    2.0782 C.2       5 UNK         0.5055 
     38 O          25.7396   30.6502    2.7645 O.2       5 UNK        -0.5220 
     39 N          26.3112   29.7993    0.7467 N.am      6 UNK        -0.4450 
     40 CA         26.1748   31.0461   -0.0120 C.3       6 UNK         0.0367 
     41 CB         25.9482   30.7290   -1.4987 C.3       6 UNK        -0.1929 
     42 C          27.4081   31.9455    0.1738 C.2       6 UNK         0.5070 
     43 O          27.2704   33.1683    0.2220 O.2       6 UNK        -0.5237 
     44 N          28.5838   31.3176    0.3033 N.am      7 UNK        -0.4739 
     45 CA         29.8252   31.9535    0.7370 C.3       7 UNK         0.0276 
     46 CB         31.0145   31.1765    0.1470 C.3       7 UNK        -0.1927 
     47 C          29.8999   31.9624    2.2725 C.2       7 UNK         0.5013 
     48 O          29.3101   31.0932    2.9218 O.2       7 UNK        -0.5193 
     49 N          30.6563   32.9226    2.8200 N.am      8 UNK        -0.4253 
     50 CA         30.9830   33.0112    4.2467 C.3       8 UNK         0.0242 
     51 CB         31.6773   34.3559    4.5192 C.3       8 UNK        -0.2000 
     52 C          31.8761   31.8411    4.6969 C.2       8 UNK         0.4948 
     53 O          32.6064   31.2883    3.8727 O.2       8 UNK        -0.5275 
     54 N          31.7991   31.4996    5.9914 N.am      9 UNK        -0.4246 
     55 CA         32.4885   30.3717    6.6316 C.3       9 UNK         0.0261 
     56 CB         32.1733   30.3828    8.1366 C.3       9 UNK        -0.1959 
     57 C          34.0129   30.3492    6.4038 C.2       9 UNK         0.5033 
     58 O          34.6382   31.4099    6.3276 O.2       9 UNK        -0.5390 
     59 N          34.5664   29.1292    6.3244 N.am      10 UNK        -0.4215 
     60 CA         35.9528   28.8045    5.9579 C.3       10 UNK         0.0240 
     61 CB         36.9643   29.3783    6.9749 C.3       10 UNK        -0.1982 
     62 C          36.2722   29.1772    4.4947 C.2       10 UNK         0.4970 
     63 O          37.3403   29.7214    4.2090 O.2       10 UNK        -0.4916 
     64 N          35.3319   28.8600    3.5952 N.am      11 UNK        -0.4279 
     65 CA         35.4285   29.0573    2.1401 C.3       11 UNK         0.1003 
     66 C          36.4189   28.1057    1.4048 C.2       11 UNK         0.5709 
     67 N          36.9258   27.0515    2.0341 N.am      11 UNK        -0.7358 
     68 O          36.7457   28.3395    0.2435 O.2       11 UNK        -0.4999 
     69 C69        34.0243   29.0679    1.4725 C.3       12 UNK        -0.0954 
     70 S70        33.0207   27.5801    1.8211 S.3       12 UNK        -0.2268 
     71 C71        31.8824   28.2269    3.0939 C.3       12 UNK         0.0203 
     72 H72        25.4659   19.9613    3.0795 H         1 UNK         0.0888 
     73 H73        25.1012   19.1026    1.5819 H         1 UNK         0.0888 
     74 H74        26.0606   18.3172    2.8396 H         1 UNK         0.0888 
     75 H75        27.0926   21.4792    2.8345 H         1 UNK         0.3017 
     76 H76        29.5953   20.9374    1.5447 H         1 UNK         0.0873 
     77 H77        28.4348   23.6047    2.5425 H         1 UNK         0.0745 
     78 H78        30.0941   23.3350    2.0659 H         1 UNK         0.0745 
     79 H79        31.2901   23.2312    5.6424 H         1 UNK         0.0705 
     80 H80        31.8125   23.2487    3.9753 H         1 UNK         0.0705 
     81 H81        32.2559   25.4786    3.3788 H         1 UNK         0.1334 
     82 H82        29.5712   28.6703    4.3998 H         1 UNK         0.1417 
     83 H83        28.7819   24.6772    5.7445 H         1 UNK         0.1562 
     84 H84        27.7781   28.2736    5.9808 H         1 UNK         0.0748 
     85 H85        27.7690   26.7723    6.8640 H         1 UNK         0.0748 
     86 H86        25.8987   29.0106    4.7705 H         1 UNK         0.0940 
     87 H87        24.6883   28.0970    3.9187 H         1 UNK         0.0940 
     88 H88        27.5755   28.4880    3.0121 H         1 UNK         0.0703 
     89 H89        27.3570   26.7978    1.6473 H         1 UNK         0.3081 
     90 H90        25.4535   24.7230    0.5973 H         1 UNK         0.0719 
     91 H91        23.6660   25.7403   -0.7759 H         1 UNK         0.0809 
     92 H92        24.8871   25.0444   -1.8260 H         1 UNK         0.0809 
     93 H93        24.8257   26.7894   -1.5791 H         1 UNK         0.0809 
     94 H94        27.4597   24.6746   -0.3080 H         1 UNK         0.2990 
     95 H95        29.4002   26.6930   -2.2974 H         1 UNK         0.0690 
     96 H96        31.2616   26.7952   -0.6513 H         1 UNK         0.0788 
     97 H97        30.1321   26.5597    0.6823 H         1 UNK         0.0788 
     98 H98        30.0627   28.0216   -0.2910 H         1 UNK         0.0788 
     99 H99        30.0537   24.4501   -0.5749 H         1 UNK         0.2993 
    100 H100       28.6229   21.9549   -2.5934 H         1 UNK         0.0949 
    101 H101       30.7156   22.4011   -3.8956 H         1 UNK         0.0767 
    102 H102       31.6129   22.6201   -2.3996 H         1 UNK         0.0767 
    103 H103       30.9221   21.0462   -2.7997 H         1 UNK         0.0767 
    104 H104       30.3838   21.6627   -0.4262 H         1 UNK         0.3013 
    105 H105       26.6351   28.9876    0.2251 H         1 UNK         0.3121 
    106 H106       25.3012   31.5886    0.3562 H         1 UNK         0.0774 
    107 H107       25.7816   31.6436   -2.0692 H         1 UNK         0.0815 
    108 H108       26.8064   30.2219   -1.9413 H         1 UNK         0.0815 
    109 H109       25.0742   30.0931   -1.6402 H         1 UNK         0.0815 
    110 H110       28.5798   30.3087    0.2936 H         1 UNK         0.2987 
    111 H111       29.8571   32.9824    0.3709 H         1 UNK         0.0949 
    112 H112       31.9619   31.6383    0.4281 H         1 UNK         0.0806 
    113 H113       31.0414   30.1455    0.5003 H         1 UNK         0.0806 
    114 H114       30.9751   31.1564   -0.9422 H         1 UNK         0.0806 
    115 H115       31.1384   33.5669    2.2107 H         1 UNK         0.3010 
    116 H116       30.0479   32.9734    4.8101 H         1 UNK         0.0829 
    117 H117       31.0449   35.1963    4.2319 H         1 UNK         0.0813 
    118 H118       31.9054   34.4722    5.5795 H         1 UNK         0.0813 
    119 H119       32.6187   34.4403    3.9743 H         1 UNK         0.0813 
    120 H120       31.1989   32.0459    6.5916 H         1 UNK         0.3038 
    121 H121       32.0645   29.4628    6.1999 H         1 UNK         0.0769 
    122 H122       32.6448   29.5401    8.6441 H         1 UNK         0.0811 
    123 H123       31.1013   30.3084    8.3206 H         1 UNK         0.0811 
    124 H124       32.5354   31.2937    8.6155 H         1 UNK         0.0811 
    125 H125       33.9607   28.3302    6.4560 H         1 UNK         0.3204 
    126 H126       36.0308   27.7175    6.0105 H         1 UNK         0.0748 
    127 H127       37.9692   29.0029    6.7772 H         1 UNK         0.0771 
    128 H128       37.0143   30.4666    6.9338 H         1 UNK         0.0771 
    129 H129       36.7074   29.0923    7.9948 H         1 UNK         0.0771 
    130 H130       34.4877   28.4092    3.9098 H         1 UNK         0.2980 
    131 H131       35.8442   30.0561    1.9944 H         1 UNK         0.0545 
    132 H132       36.6625   26.8460    2.9835 H         1 UNK         0.3459 
    133 H133       37.5703   26.4498    1.5463 H         1 UNK         0.3459 
    134 H134       33.4740   29.9501    1.7994 H         1 UNK         0.0616 
    135 H135       34.1104   29.1757    0.3898 H         1 UNK         0.0616 
    136 H136       31.2558   28.9943    2.6377 H         1 UNK         0.0634 
    137 H137       32.4715   28.7198    3.8648 H         1 UNK         0.0634 
@<TRIPOS>BOND
     1    1    2 1    
     2    1   72 1    
     3    1   73 1    
     4    1   74 1    
     5    2    3 2    
     6    2    4 am   BACKBONE|DICT|INTERRES
     7    4    5 1    
     8    4   75 1    
     9    5    6 1    
    10    5   35 1    
    11    5   76 1    
    12    6    7 1    
    13    6   77 1    
    14    6   78 1    
    15    7    8 1    
    16    8    9 1    
    17    8   79 1    
    18    8   80 1    
    19    9   10 ar   
    20    9   14 ar   
    21   10   11 ar   
    22   10   81 1    
    23   11   12 ar   
    24   11   71 1    
    25   12   13 ar   
    26   12   82 1    
    27   13   14 ar   
    28   13   15 1    
    29   14   83 1    
    30   15   16 1    
    31   15   84 1    
    32   15   85 1    
    33   16   17 1    
    34   17   18 1    
    35   17   86 1    
    36   17   87 1    
    37   18   19 1    
    38   18   37 1    
    39   18   88 1    
    40   19   20 am   BACKBONE|DICT|INTERRES
    41   19   89 1    
    42   20   21 2    
    43   20   22 1    
    44   22   23 1    
    45   22   24 1    
    46   22   90 1    
    47   23   91 1    
    48   23   92 1    
    49   23   93 1    
    50   24   25 am   BACKBONE|DICT|INTERRES
    51   24   94 1    
    52   25   26 2    
    53   25   27 1    
    54   27   28 1    
    55   27   29 1    
    56   27   95 1    
    57   28   96 1    
    58   28   97 1    
    59   28   98 1    
    60   29   30 am   BACKBONE|DICT|INTERRES
    61   29   99 1    
    62   30   31 2    
    63   30   32 1    
    64   32   33 1    
    65   32   34 1    
    66   32  100 1    
    67   33  101 1    
    68   33  102 1    
    69   33  103 1    
    70   34   35 am   BACKBONE|DICT|INTERRES
    71   34  104 1    
    72   35   36 2    
    73   37   38 2    
    74   37   39 am   BACKBONE|DICT|INTERRES
    75   39   40 1    
    76   39  105 1    
    77   40   41 1    
    78   40   42 1    
    79   40  106 1    
    80   41  107 1    
    81   41  108 1    
    82   41  109 1    
    83   42   43 2    
    84   42   44 am   BACKBONE|DICT|INTERRES
    85   44   45 1    
    86   44  110 1    
    87   45   46 1    
    88   45   47 1    
    89   45  111 1    
    90   46  112 1    
    91   46  113 1    
    92   46  114 1    
    93   47   48 2    
    94   47   49 am   BACKBONE|DICT|INTERRES
    95   49   50 1    
    96   49  115 1    
    97   50   51 1    
    98   50   52 1    
    99   50  116 1    
   100   51  117 1    
   101   51  118 1    
   102   51  119 1    
   103   52   53 2    
   104   52   54 am   BACKBONE|DICT|INTERRES
   105   54   55 1    
   106   54  120 1    
   107   55   56 1    
   108   55   57 1    
   109   55  121 1    
   110   56  122 1    
   111   56  123 1    
   112   56  124 1    
   113   57   58 2    
   114   57   59 am   BACKBONE|DICT|INTERRES
   115   59   60 1    
   116   59  125 1    
   117   60   61 1    
   118   60   62 1    
   119   60  126 1    
   120   61  127 1    
   121   61  128 1    
   122   61  129 1    
   123   62   63 2    
   124   62   64 am   BACKBONE|DICT|INTERRES
   125   64   65 1    
   126   64  130 1    
   127   65   66 1    
   128   65   69 1    
   129   65  131 1    
   130   66   67 am   BACKBONE|DICT|INTERRES
   131   66   68 2    
   132   67  132 1    
   133   67  133 1    
   134   69   70 1    
   135   69  134 1    
   136   69  135 1    
   137   70   71 1    
   138   71  136 1    
   139   71  137 1    
@<TRIPOS>SUBSTRUCTURE
     1 UNK         1 GROUP             0       ****    0 ROOT    
