@<TRIPOS>MOLECULE
3R136
137   139    1
SMALL
USER_CHARGES


@<TRIPOS>ATOM
      1 CA         26.3357   19.6354    3.2515 C.3       0 UNK        -0.1979 
      2 C          27.0281   19.5029    1.9029 C.2       0 UNK         0.4864 
      3 O          26.6935   18.6059    1.1271 O.2       0 UNK        -0.5359 
      4 N          27.9948   20.3850    1.6228 N.am      1 UNK        -0.4318 
      5 CA         28.7066   20.4760    0.3455 C.3       1 UNK         0.0824 
      6 C6         30.0659   21.2101    0.4971 C.3       12 UNK        -0.0944 
      7 S7         29.9494   22.8645    1.2689 S.3       12 UNK        -0.2672 
      8 C8         30.6743   22.5228    2.9019 C.3       12 UNK         0.0333 
      9 C9         30.5457   23.7240    3.8235 C.ar      12 UNK        -0.0807 
     10 C10        31.5373   24.7085    3.8372 C.ar      12 UNK        -0.0894 
     11 C11        31.4241   25.8150    4.6841 C.ar      12 UNK        -0.0804 
     12 C12        30.3184   25.9273    5.5311 C.ar      12 UNK        -0.0824 
     13 C13        29.3132   24.9570    5.5133 C.ar      12 UNK        -0.0762 
     14 C14        29.4356   23.8530    4.6635 C.ar      12 UNK        -0.0782 
     15 C15        28.0860   25.1069    6.3980 C.3       12 UNK         0.0230 
     16 S16        26.6101   25.5279    5.4197 S.3       12 UNK        -0.2608 
     17 C17        26.9282   27.2642    4.9410 C.3       12 UNK        -0.0989 
     18 CA         27.6363   27.4367    3.5683 C.3       5 UNK         0.0716 
     19 N          27.0404   26.5986    2.5245 N.am      5 UNK        -0.4135 
     20 C          27.6238   26.3052    1.3568 C.2       4 UNK         0.5031 
     21 O          28.7583   26.6788    1.0524 O.2       4 UNK        -0.5229 
     22 CA         26.7915   25.4283    0.3986 C.3       4 UNK         0.0329 
     23 CB         25.4930   26.1336   -0.0489 C.3       4 UNK        -0.2001 
     24 N          27.5553   24.9419   -0.7573 N.am      4 UNK        -0.4303 
     25 C          28.0764   25.6483   -1.7748 C.2       3 UNK         0.5044 
     26 O          27.8886   26.8517   -1.9606 O.2       3 UNK        -0.5152 
     27 CA         28.9724   24.8818   -2.7679 C.3       3 UNK         0.0319 
     28 CB         30.4541   25.0868   -2.4098 C.3       3 UNK        -0.2001 
     29 N          28.6919   23.4452   -2.8197 N.am      3 UNK        -0.4354 
     30 C          27.5890   22.8972   -3.3508 C.2       2 UNK         0.4964 
     31 O          26.7219   23.5402   -3.9430 O.2       2 UNK        -0.5047 
     32 CA         27.4122   21.3759   -3.1785 C.3       2 UNK         0.0288 
     33 CB         27.8797   20.6338   -4.4414 C.3       2 UNK        -0.2113 
     34 N          28.1045   20.8211   -2.0076 N.am      2 UNK        -0.4145 
     35 C          27.8219   21.1330   -0.7339 C.2       1 UNK         0.5006 
     36 O          26.9454   21.9388   -0.4083 O.2       1 UNK        -0.5103 
     37 C          27.6114   28.9194    3.1413 C.2       5 UNK         0.5055 
     38 O          26.6515   29.3443    2.4915 O.2       5 UNK        -0.5220 
     39 N          28.6257   29.6905    3.5501 N.am      6 UNK        -0.4450 
     40 CA         28.7146   31.1309    3.3227 C.3       6 UNK         0.0367 
     41 CB         29.6859   31.4166    2.1637 C.3       6 UNK        -0.1929 
     42 C          29.1983   31.7940    4.6137 C.2       6 UNK         0.5070 
     43 O          30.2346   31.3927    5.1457 O.2       6 UNK        -0.5237 
     44 N          28.4721   32.8204    5.0766 N.am      7 UNK        -0.4739 
     45 CA         28.7753   33.5788    6.2995 C.3       7 UNK         0.0276 
     46 CB         27.6031   34.5223    6.6141 C.3       7 UNK        -0.1927 
     47 C          30.0980   34.3659    6.2381 C.2       7 UNK         0.5013 
     48 O          30.6930   34.6347    7.2817 O.2       7 UNK        -0.5193 
     49 N          30.5443   34.6940    5.0181 N.am      8 UNK        -0.4253 
     50 CA         31.8347   35.3226    4.7283 C.3       8 UNK         0.0242 
     51 CB         31.7620   35.9691    3.3334 C.3       8 UNK        -0.2000 
     52 C          33.0314   34.3522    4.8098 C.2       8 UNK         0.4948 
     53 O          34.1671   34.8109    4.6847 O.2       8 UNK        -0.5275 
     54 N          32.7713   33.0432    4.9761 N.am      9 UNK        -0.4246 
     55 CA         33.7412   31.9388    5.0054 C.3       9 UNK         0.0261 
     56 CB         34.7170   32.0738    6.1941 C.3       9 UNK        -0.1959 
     57 C          34.4609   31.7083    3.6597 C.2       9 UNK         0.5033 
     58 O          35.5475   31.1285    3.6366 O.2       9 UNK        -0.5390 
     59 N          33.8274   32.1335    2.5567 N.am      10 UNK        -0.4215 
     60 CA         34.2739   31.9023    1.1776 C.3       10 UNK         0.0240 
     61 CB         33.6036   32.9420    0.2633 C.3       10 UNK        -0.1982 
     62 C          33.9793   30.4730    0.6778 C.2       10 UNK         0.4970 
     63 O          34.4955   30.0785   -0.3685 O.2       10 UNK        -0.4916 
     64 N          33.1413   29.7427    1.4207 N.am      11 UNK        -0.4279 
     65 CA         32.7682   28.3395    1.2222 C.3       11 UNK         0.1003 
     66 C          33.9577   27.3421    1.3169 C.2       11 UNK         0.5709 
     67 N          33.8073   26.1518    0.7510 N.am      11 UNK        -0.7358 
     68 O          34.9945   27.6156    1.9187 O.2       11 UNK        -0.4999 
     69 C69        31.6068   27.9531    2.1770 C.3       12 UNK        -0.0954 
     70 S70        31.8686   28.4386    3.9236 S.3       12 UNK        -0.2268 
     71 C71        32.4869   26.9010    4.6742 C.3       12 UNK         0.0203 
     72 H72        25.2693   19.8088    3.1096 H         1 UNK         0.0888 
     73 H73        26.4589   18.7193    3.8285 H         1 UNK         0.0888 
     74 H74        26.7382   20.4618    3.8373 H         1 UNK         0.0888 
     75 H75        28.1904   21.1339    2.2703 H         1 UNK         0.3017 
     76 H76        28.9186   19.4573    0.0123 H         1 UNK         0.0873 
     77 H77        30.7424   20.5892    1.0867 H         1 UNK         0.0745 
     78 H78        30.5578   21.3192   -0.4712 H         1 UNK         0.0745 
     79 H79        30.1847   21.6563    3.3488 H         1 UNK         0.0705 
     80 H80        31.7250   22.2543    2.7808 H         1 UNK         0.0705 
     81 H81        32.3896   24.6195    3.1772 H         1 UNK         0.1334 
     82 H82        30.2297   26.7868    6.1816 H         1 UNK         0.1417 
     83 H83        28.6564   23.1032    4.6474 H         1 UNK         0.1562 
     84 H84        28.2436   25.8610    7.1707 H         1 UNK         0.0748 
     85 H85        27.9053   24.1670    6.9217 H         1 UNK         0.0748 
     86 H86        27.5049   27.7528    5.7286 H         1 UNK         0.0940 
     87 H87        25.9579   27.7659    4.9320 H         1 UNK         0.0940 
     88 H88        28.6792   27.1334    3.6730 H         1 UNK         0.0703 
     89 H89        26.1075   26.2633    2.7102 H         1 UNK         0.3081 
     90 H90        26.5136   24.5322    0.9562 H         1 UNK         0.0719 
     91 H91        25.6944   27.0985   -0.5152 H         1 UNK         0.0809 
     92 H92        24.9380   25.5251   -0.7631 H         1 UNK         0.0809 
     93 H93        24.8306   26.3189    0.7970 H         1 UNK         0.0809 
     94 H94        27.7622   23.9514   -0.7259 H         1 UNK         0.2990 
     95 H95        28.7979   25.2998   -3.7617 H         1 UNK         0.0690 
     96 H96        31.1104   24.6113   -3.1388 H         1 UNK         0.0788 
     97 H97        30.6901   24.6801   -1.4252 H         1 UNK         0.0788 
     98 H98        30.7065   26.1480   -2.3910 H         1 UNK         0.0788 
     99 H99        29.3600   22.8365   -2.3710 H         1 UNK         0.2993 
    100 H100       26.3435   21.1913   -3.0480 H         1 UNK         0.0949 
    101 H101       27.3615   21.0054   -5.3268 H         1 UNK         0.0767 
    102 H102       28.9495   20.7612   -4.6127 H         1 UNK         0.0767 
    103 H103       27.6738   19.5653   -4.3738 H         1 UNK         0.0767 
    104 H104       28.8400   20.1544   -2.1958 H         1 UNK         0.3013 
    105 H105       29.3726   29.2994    4.1118 H         1 UNK         0.3121 
    106 H106       27.7342   31.5387    3.0668 H         1 UNK         0.0774 
    107 H107       30.6909   31.0567    2.3825 H         1 UNK         0.0815 
    108 H108       29.7556   32.4865    1.9644 H         1 UNK         0.0815 
    109 H109       29.3539   30.9358    1.2433 H         1 UNK         0.0815 
    110 H110       27.6369   33.0909    4.5758 H         1 UNK         0.2987 
    111 H111       28.8683   32.8627    7.1193 H         1 UNK         0.0949 
    112 H112       27.4445   35.2504    5.8176 H         1 UNK         0.0806 
    113 H113       26.6742   33.9693    6.7553 H         1 UNK         0.0806 
    114 H114       27.7870   35.0805    7.5333 H         1 UNK         0.0806 
    115 H115       29.9698   34.4456    4.2261 H         1 UNK         0.3010 
    116 H116       32.0092   36.1114    5.4634 H         1 UNK         0.0829 
    117 H117       31.5941   35.2285    2.5504 H         1 UNK         0.0813 
    118 H118       30.9594   36.7049    3.2782 H         1 UNK         0.0813 
    119 H119       32.6900   36.4904    3.0936 H         1 UNK         0.0813 
    120 H120       31.8039   32.7538    5.0835 H         1 UNK         0.3038 
    121 H121       33.1498   31.0383    5.1781 H         1 UNK         0.0769 
    122 H122       35.4093   32.9053    6.0603 H         1 UNK         0.0811 
    123 H123       35.3167   31.1704    6.3112 H         1 UNK         0.0811 
    124 H124       34.1816   32.2287    7.1309 H         1 UNK         0.0811 
    125 H125       32.9542   32.6247    2.6750 H         1 UNK         0.3204 
    126 H126       35.3552   32.0487    1.1314 H         1 UNK         0.0748 
    127 H127       33.9426   32.8319   -0.7678 H         1 UNK         0.0771 
    128 H128       32.5174   32.8396    0.2614 H         1 UNK         0.0771 
    129 H129       33.8455   33.9588    0.5742 H         1 UNK         0.0771 
    130 H130       32.8127   30.1406    2.2859 H         1 UNK         0.2980 
    131 H131       32.3911   28.2679    0.2002 H         1 UNK         0.0545 
    132 H132       34.5624   25.4868    0.8061 H         1 UNK         0.3459 
    133 H133       32.9588   25.9077    0.2657 H         1 UNK         0.3459 
    134 H134       31.3705   26.8911    2.1052 H         1 UNK         0.0616 
    135 H135       30.7015   28.4619    1.8441 H         1 UNK         0.0616 
    136 H136       33.3821   26.5706    4.1461 H         1 UNK         0.0634 
    137 H137       32.7963   27.1108    5.6989 H         1 UNK         0.0634 
@<TRIPOS>BOND
     1    1    2 1    
     2    1   72 1    
     3    1   73 1    
     4    1   74 1    
     5    2    3 2    
     6    2    4 am   BACKBONE|DICT|INTERRES
     7    4    5 1    
     8    4   75 1    
     9    5    6 1    
    10    5   35 1    
    11    5   76 1    
    12    6    7 1    
    13    6   77 1    
    14    6   78 1    
    15    7    8 1    
    16    8    9 1    
    17    8   79 1    
    18    8   80 1    
    19    9   10 ar   
    20    9   14 ar   
    21   10   11 ar   
    22   10   81 1    
    23   11   12 ar   
    24   11   71 1    
    25   12   13 ar   
    26   12   82 1    
    27   13   14 ar   
    28   13   15 1    
    29   14   83 1    
    30   15   16 1    
    31   15   84 1    
    32   15   85 1    
    33   16   17 1    
    34   17   18 1    
    35   17   86 1    
    36   17   87 1    
    37   18   19 1    
    38   18   37 1    
    39   18   88 1    
    40   19   20 am   BACKBONE|DICT|INTERRES
    41   19   89 1    
    42   20   21 2    
    43   20   22 1    
    44   22   23 1    
    45   22   24 1    
    46   22   90 1    
    47   23   91 1    
    48   23   92 1    
    49   23   93 1    
    50   24   25 am   BACKBONE|DICT|INTERRES
    51   24   94 1    
    52   25   26 2    
    53   25   27 1    
    54   27   28 1    
    55   27   29 1    
    56   27   95 1    
    57   28   96 1    
    58   28   97 1    
    59   28   98 1    
    60   29   30 am   BACKBONE|DICT|INTERRES
    61   29   99 1    
    62   30   31 2    
    63   30   32 1    
    64   32   33 1    
    65   32   34 1    
    66   32  100 1    
    67   33  101 1    
    68   33  102 1    
    69   33  103 1    
    70   34   35 am   BACKBONE|DICT|INTERRES
    71   34  104 1    
    72   35   36 2    
    73   37   38 2    
    74   37   39 am   BACKBONE|DICT|INTERRES
    75   39   40 1    
    76   39  105 1    
    77   40   41 1    
    78   40   42 1    
    79   40  106 1    
    80   41  107 1    
    81   41  108 1    
    82   41  109 1    
    83   42   43 2    
    84   42   44 am   BACKBONE|DICT|INTERRES
    85   44   45 1    
    86   44  110 1    
    87   45   46 1    
    88   45   47 1    
    89   45  111 1    
    90   46  112 1    
    91   46  113 1    
    92   46  114 1    
    93   47   48 2    
    94   47   49 am   BACKBONE|DICT|INTERRES
    95   49   50 1    
    96   49  115 1    
    97   50   51 1    
    98   50   52 1    
    99   50  116 1    
   100   51  117 1    
   101   51  118 1    
   102   51  119 1    
   103   52   53 2    
   104   52   54 am   BACKBONE|DICT|INTERRES
   105   54   55 1    
   106   54  120 1    
   107   55   56 1    
   108   55   57 1    
   109   55  121 1    
   110   56  122 1    
   111   56  123 1    
   112   56  124 1    
   113   57   58 2    
   114   57   59 am   BACKBONE|DICT|INTERRES
   115   59   60 1    
   116   59  125 1    
   117   60   61 1    
   118   60   62 1    
   119   60  126 1    
   120   61  127 1    
   121   61  128 1    
   122   61  129 1    
   123   62   63 2    
   124   62   64 am   BACKBONE|DICT|INTERRES
   125   64   65 1    
   126   64  130 1    
   127   65   66 1    
   128   65   69 1    
   129   65  131 1    
   130   66   67 am   BACKBONE|DICT|INTERRES
   131   66   68 2    
   132   67  132 1    
   133   67  133 1    
   134   69   70 1    
   135   69  134 1    
   136   69  135 1    
   137   70   71 1    
   138   71  136 1    
   139   71  137 1    
@<TRIPOS>SUBSTRUCTURE
     1 UNK         1 GROUP             0       ****    0 ROOT    
