@<TRIPOS>MOLECULE
3R136
137   139    1
SMALL
USER_CHARGES


@<TRIPOS>ATOM
      1 CA         26.9276   21.0838    1.5954 C.3       0 UNK        -0.1979 
      2 C          27.3141   21.8945    0.3671 C.2       0 UNK         0.4864 
      3 O          26.4679   22.1465   -0.4914 O.2       0 UNK        -0.5359 
      4 N          28.5896   22.2886    0.2730 N.am      1 UNK        -0.4318 
      5 CA         29.1647   23.0406   -0.8494 C.3       1 UNK         0.0824 
      6 C6         30.7136   23.0327   -0.8100 C.3       12 UNK        -0.0944 
      7 S7         31.3906   21.3376   -0.7475 S.3       12 UNK        -0.2672 
      8 C8         32.9665   21.5802    0.1423 C.3       12 UNK         0.0333 
      9 C9         32.8269   22.1688    1.5459 C.ar      12 UNK        -0.0807 
     10 C10        33.7693   23.1026    1.9883 C.ar      12 UNK        -0.0894 
     11 C11        33.6886   23.6461    3.2729 C.ar      12 UNK        -0.0804 
     12 C12        32.6457   23.2600    4.1192 C.ar      12 UNK        -0.0824 
     13 C13        31.6963   22.3271    3.6943 C.ar      12 UNK        -0.0762 
     14 C14        31.8001   21.7736    2.4133 C.ar      12 UNK        -0.0782 
     15 C15        30.5834   21.8865    4.6342 C.3       12 UNK         0.0230 
     16 S16        28.9671   22.5843    4.1717 S.3       12 UNK        -0.2608 
     17 C17        29.1022   24.3354    4.6845 C.3       12 UNK        -0.0989 
     18 CA         28.8395   25.3193    3.5096 C.3       5 UNK         0.0716 
     19 N          27.5868   25.0788    2.7814 N.am      5 UNK        -0.4135 
     20 C          26.3399   25.0629    3.2688 C.2       4 UNK         0.5031 
     21 O          26.0561   25.2584    4.4521 O.2       4 UNK        -0.5229 
     22 CA         25.2294   24.7872    2.2344 C.3       4 UNK         0.0329 
     23 CB         23.8258   24.6742    2.8673 C.3       4 UNK        -0.2001 
     24 N          25.2317   25.7530    1.1275 N.am      4 UNK        -0.4303 
     25 C          25.0387   27.0782    1.2036 C.2       3 UNK         0.5044 
     26 O          24.8256   27.6796    2.2559 O.2       3 UNK        -0.5152 
     27 CA         25.1012   27.8553   -0.1255 C.3       3 UNK         0.0319 
     28 CB         24.9060   29.3730    0.0542 C.3       3 UNK        -0.2001 
     29 N          26.3717   27.6102   -0.8129 N.am      3 UNK        -0.4354 
     30 C          26.5755   26.6240   -1.6979 C.2       2 UNK         0.4964 
     31 O          25.6915   25.8368   -2.0412 O.2       2 UNK        -0.5047 
     32 CA         27.9900   26.4423   -2.2891 C.3       2 UNK         0.0288 
     33 CB         29.0230   27.4910   -1.8200 C.3       2 UNK        -0.2113 
     34 N          28.4969   25.0811   -2.0599 N.am      2 UNK        -0.4145 
     35 C          28.6396   24.4888   -0.8647 C.2       1 UNK         0.5006 
     36 O          28.3992   25.0500    0.2056 O.2       1 UNK        -0.5103 
     37 C          29.0125   26.8060    3.8967 C.2       5 UNK         0.5055 
     38 O          29.8021   27.1207    4.7904 O.2       5 UNK        -0.5220 
     39 N          28.3087   27.7021    3.1928 N.am      6 UNK        -0.4450 
     40 CA         28.4444   29.1504    3.2850 C.3       6 UNK         0.0367 
     41 CB         27.1380   29.7686    3.8052 C.3       6 UNK        -0.1929 
     42 C          28.7826   29.6859    1.8905 C.2       6 UNK         0.5070 
     43 O          28.2185   29.2102    0.9021 O.2       6 UNK        -0.5237 
     44 N          29.6850   30.6677    1.8403 N.am      7 UNK        -0.4739 
     45 CA         30.1624   31.3245    0.6255 C.3       7 UNK         0.0276 
     46 CB         31.1242   30.3963   -0.1469 C.3       7 UNK        -0.1927 
     47 C          30.7976   32.6694    1.0087 C.2       7 UNK         0.5013 
     48 O          31.9849   32.8837    0.7602 O.2       7 UNK        -0.5193 
     49 N          29.9948   33.5376    1.6434 N.am      8 UNK        -0.4253 
     50 CA         30.3700   34.8391    2.2124 C.3       8 UNK         0.0242 
     51 CB         30.8255   35.8320    1.1173 C.3       8 UNK        -0.2000 
     52 C          31.3737   34.6620    3.3659 C.2       8 UNK         0.4948 
     53 O          30.9732   34.1981    4.4337 O.2       8 UNK        -0.5275 
     54 N          32.6538   34.9877    3.1434 N.am      9 UNK        -0.4246 
     55 CA         33.7554   34.8105    4.0986 C.3       9 UNK         0.0261 
     56 CB         34.8611   35.8336    3.7754 C.3       9 UNK        -0.1959 
     57 C          34.2810   33.3571    4.1273 C.2       9 UNK         0.5033 
     58 O          35.4939   33.1377    4.1051 O.2       9 UNK        -0.5390 
     59 N          33.3581   32.3923    4.1629 N.am      10 UNK        -0.4215 
     60 CA         33.5572   30.9465    4.0997 C.3       10 UNK         0.0240 
     61 CB         34.1188   30.5548    2.7149 C.3       10 UNK        -0.1982 
     62 C          32.1900   30.2836    4.3558 C.2       10 UNK         0.4970 
     63 O          31.1772   30.9786    4.2581 O.2       10 UNK        -0.4916 
     64 N          32.1028   28.9808    4.6531 N.am      11 UNK        -0.4279 
     65 CA         33.1820   27.9922    4.7999 C.3       11 UNK         0.1003 
     66 C          33.3250   27.4638    6.2581 C.2       11 UNK         0.5709 
     67 N          32.5398   27.9379    7.2188 N.am      11 UNK        -0.7358 
     68 O          34.1845   26.6327    6.5361 O.2       11 UNK        -0.4999 
     69 C69        32.9906   26.8490    3.7623 C.3       12 UNK        -0.0954 
     70 S70        34.5549   26.2781    3.0211 S.3       12 UNK        -0.2268 
     71 C71        34.7492   24.6249    3.7564 C.3       12 UNK         0.0203 
     72 H72        27.7981   20.6181    2.0573 H         1 UNK         0.0888 
     73 H73        26.4471   21.7186    2.3385 H         1 UNK         0.0888 
     74 H74        26.2318   20.2909    1.3221 H         1 UNK         0.0888 
     75 H75        29.2304   22.0818    1.0243 H         1 UNK         0.3017 
     76 H76        28.8407   22.5526   -1.7713 H         1 UNK         0.0873 
     77 H77        31.1240   23.5269   -1.6926 H         1 UNK         0.0745 
     78 H78        31.0716   23.6006    0.0510 H         1 UNK         0.0745 
     79 H79        33.6063   22.2141   -0.4739 H         1 UNK         0.0705 
     80 H80        33.4723   20.6171    0.2208 H         1 UNK         0.0705 
     81 H81        34.5779   23.4042    1.3361 H         1 UNK         0.1334 
     82 H82        32.5824   23.6768    5.1154 H         1 UNK         0.1417 
     83 H83        31.0799   21.0331    2.0943 H         1 UNK         0.1562 
     84 H84        30.8119   22.1531    5.6674 H         1 UNK         0.0748 
     85 H85        30.5108   20.7982    4.6136 H         1 UNK         0.0748 
     86 H86        30.0934   24.5089    5.1065 H         1 UNK         0.0940 
     87 H87        28.3974   24.5119    5.4983 H         1 UNK         0.0940 
     88 H88        29.6257   25.1373    2.7748 H         1 UNK         0.0703 
     89 H89        27.7214   24.9625    1.7755 H         1 UNK         0.3081 
     90 H90        25.4571   23.8202    1.7871 H         1 UNK         0.0719 
     91 H91        23.5242   25.5992    3.3597 H         1 UNK         0.0809 
     92 H92        23.0715   24.4309    2.1191 H         1 UNK         0.0809 
     93 H93        23.8019   23.8851    3.6199 H         1 UNK         0.0809 
     94 H94        25.4220   25.3692    0.2093 H         1 UNK         0.2990 
     95 H95        24.2730   27.4979   -0.7411 H         1 UNK         0.0690 
     96 H96        24.9297   29.8912   -0.9044 H         1 UNK         0.0788 
     97 H97        25.6753   29.8113    0.6894 H         1 UNK         0.0788 
     98 H98        23.9417   29.5901    0.5153 H         1 UNK         0.0788 
     99 H99        27.1606   28.1683   -0.4962 H         1 UNK         0.2993 
    100 H100       27.8755   26.5553   -3.3683 H         1 UNK         0.0949 
    101 H101       29.2301   27.4135   -0.7525 H         1 UNK         0.0767 
    102 H102       29.9703   27.3662   -2.3445 H         1 UNK         0.0767 
    103 H103       28.6807   28.5072   -2.0205 H         1 UNK         0.0767 
    104 H104       28.6902   24.5420   -2.8926 H         1 UNK         0.3013 
    105 H105       27.7252   27.3757    2.4347 H         1 UNK         0.3121 
    106 H106       29.2416   29.4099    3.9788 H         1 UNK         0.0774 
    107 H107       27.2529   30.8418    3.9609 H         1 UNK         0.0815 
    108 H108       26.3150   29.6293    3.1050 H         1 UNK         0.0815 
    109 H109       26.8439   29.3301    4.7588 H         1 UNK         0.0815 
    110 H110       30.1174   30.9779    2.7093 H         1 UNK         0.2987 
    111 H111       29.3080   31.5456   -0.0182 H         1 UNK         0.0949 
    112 H112       31.9635   30.0799    0.4714 H         1 UNK         0.0806 
    113 H113       30.6166   29.4990   -0.4969 H         1 UNK         0.0806 
    114 H114       31.5317   30.8966   -1.0262 H         1 UNK         0.0806 
    115 H115       29.0468   33.2421    1.8326 H         1 UNK         0.3010 
    116 H116       29.4650   35.2500    2.6628 H         1 UNK         0.0829 
    117 H117       30.0321   35.9950    0.3878 H         1 UNK         0.0813 
    118 H118       31.0660   36.8050    1.5480 H         1 UNK         0.0813 
    119 H119       31.7038   35.4883    0.5709 H         1 UNK         0.0813 
    120 H120       32.9085   35.2900    2.2139 H         1 UNK         0.3038 
    121 H121       33.3870   35.0314    5.1027 H         1 UNK         0.0769 
    122 H122       35.6692   35.7819    4.5064 H         1 UNK         0.0811 
    123 H123       34.4767   36.8535    3.7947 H         1 UNK         0.0811 
    124 H124       35.2983   35.6571    2.7919 H         1 UNK         0.0811 
    125 H125       32.3788   32.6639    4.2290 H         1 UNK         0.3204 
    126 H126       34.2501   30.6644    4.8936 H         1 UNK         0.0748 
    127 H127       33.5478   31.0171    1.9108 H         1 UNK         0.0771 
    128 H128       35.1553   30.8728    2.6045 H         1 UNK         0.0771 
    129 H129       34.0970   29.4787    2.5448 H         1 UNK         0.0771 
    130 H130       31.1831   28.5781    4.8026 H         1 UNK         0.2980 
    131 H131       34.1402   28.4682    4.6036 H         1 UNK         0.0545 
    132 H132       32.6524   27.5937    8.1591 H         1 UNK         0.3459 
    133 H133       31.8328   28.6256    7.0149 H         1 UNK         0.3459 
    134 H134       32.3851   27.1959    2.9229 H         1 UNK         0.0616 
    135 H135       32.4275   26.0173    4.1859 H         1 UNK         0.0616 
    136 H136       35.7361   24.2418    3.4933 H         1 UNK         0.0634 
    137 H137       34.7374   24.7034    4.8436 H         1 UNK         0.0634 
@<TRIPOS>BOND
     1    1    2 1    
     2    1   72 1    
     3    1   73 1    
     4    1   74 1    
     5    2    3 2    
     6    2    4 am   BACKBONE|DICT|INTERRES
     7    4    5 1    
     8    4   75 1    
     9    5    6 1    
    10    5   35 1    
    11    5   76 1    
    12    6    7 1    
    13    6   77 1    
    14    6   78 1    
    15    7    8 1    
    16    8    9 1    
    17    8   79 1    
    18    8   80 1    
    19    9   10 ar   
    20    9   14 ar   
    21   10   11 ar   
    22   10   81 1    
    23   11   12 ar   
    24   11   71 1    
    25   12   13 ar   
    26   12   82 1    
    27   13   14 ar   
    28   13   15 1    
    29   14   83 1    
    30   15   16 1    
    31   15   84 1    
    32   15   85 1    
    33   16   17 1    
    34   17   18 1    
    35   17   86 1    
    36   17   87 1    
    37   18   19 1    
    38   18   37 1    
    39   18   88 1    
    40   19   20 am   BACKBONE|DICT|INTERRES
    41   19   89 1    
    42   20   21 2    
    43   20   22 1    
    44   22   23 1    
    45   22   24 1    
    46   22   90 1    
    47   23   91 1    
    48   23   92 1    
    49   23   93 1    
    50   24   25 am   BACKBONE|DICT|INTERRES
    51   24   94 1    
    52   25   26 2    
    53   25   27 1    
    54   27   28 1    
    55   27   29 1    
    56   27   95 1    
    57   28   96 1    
    58   28   97 1    
    59   28   98 1    
    60   29   30 am   BACKBONE|DICT|INTERRES
    61   29   99 1    
    62   30   31 2    
    63   30   32 1    
    64   32   33 1    
    65   32   34 1    
    66   32  100 1    
    67   33  101 1    
    68   33  102 1    
    69   33  103 1    
    70   34   35 am   BACKBONE|DICT|INTERRES
    71   34  104 1    
    72   35   36 2    
    73   37   38 2    
    74   37   39 am   BACKBONE|DICT|INTERRES
    75   39   40 1    
    76   39  105 1    
    77   40   41 1    
    78   40   42 1    
    79   40  106 1    
    80   41  107 1    
    81   41  108 1    
    82   41  109 1    
    83   42   43 2    
    84   42   44 am   BACKBONE|DICT|INTERRES
    85   44   45 1    
    86   44  110 1    
    87   45   46 1    
    88   45   47 1    
    89   45  111 1    
    90   46  112 1    
    91   46  113 1    
    92   46  114 1    
    93   47   48 2    
    94   47   49 am   BACKBONE|DICT|INTERRES
    95   49   50 1    
    96   49  115 1    
    97   50   51 1    
    98   50   52 1    
    99   50  116 1    
   100   51  117 1    
   101   51  118 1    
   102   51  119 1    
   103   52   53 2    
   104   52   54 am   BACKBONE|DICT|INTERRES
   105   54   55 1    
   106   54  120 1    
   107   55   56 1    
   108   55   57 1    
   109   55  121 1    
   110   56  122 1    
   111   56  123 1    
   112   56  124 1    
   113   57   58 2    
   114   57   59 am   BACKBONE|DICT|INTERRES
   115   59   60 1    
   116   59  125 1    
   117   60   61 1    
   118   60   62 1    
   119   60  126 1    
   120   61  127 1    
   121   61  128 1    
   122   61  129 1    
   123   62   63 2    
   124   62   64 am   BACKBONE|DICT|INTERRES
   125   64   65 1    
   126   64  130 1    
   127   65   66 1    
   128   65   69 1    
   129   65  131 1    
   130   66   67 am   BACKBONE|DICT|INTERRES
   131   66   68 2    
   132   67  132 1    
   133   67  133 1    
   134   69   70 1    
   135   69  134 1    
   136   69  135 1    
   137   70   71 1    
   138   71  136 1    
   139   71  137 1    
@<TRIPOS>SUBSTRUCTURE
     1 UNK         1 GROUP             0       ****    0 ROOT    
