@<TRIPOS>MOLECULE
3R136
137   139    1
SMALL
USER_CHARGES


@<TRIPOS>ATOM
      1 CA         30.2661   24.3779    3.7686 C.3       0 UNK        -0.1979 
      2 C          29.4308   23.1058    3.8733 C.2       0 UNK         0.4864 
      3 O          29.3594   22.5289    4.9567 O.2       0 UNK        -0.5359 
      4 N          28.7749   22.6197    2.8061 N.am      1 UNK        -0.4318 
      5 CA         28.6905   23.1376    1.4258 C.3       1 UNK         0.0824 
      6 C6         30.0555   23.3356    0.7048 C.3       12 UNK        -0.0944 
      7 S7         31.2280   21.9488    0.9401 S.3       12 UNK        -0.2672 
      8 C8         32.7485   22.5463    0.1236 C.3       12 UNK         0.0333 
      9 C9         33.0903   23.9797    0.5054 C.ar      12 UNK        -0.0807 
     10 C10        33.5773   24.2847    1.7803 C.ar      12 UNK        -0.0894 
     11 C11        33.8007   25.6148    2.1510 C.ar      12 UNK        -0.0804 
     12 C12        33.5470   26.6400    1.2338 C.ar      12 UNK        -0.0824 
     13 C13        33.0838   26.3429   -0.0515 C.ar      12 UNK        -0.0762 
     14 C14        32.8692   25.0101   -0.4116 C.ar      12 UNK        -0.0782 
     15 C15        32.8085   27.4567   -1.0529 C.3       12 UNK         0.0230 
     16 S16        31.0939   27.4183   -1.6706 S.3       12 UNK        -0.2608 
     17 C17        30.1535   27.7244   -0.1401 C.3       12 UNK        -0.0989 
     18 CA         28.8011   28.4201   -0.4426 C.3       5 UNK         0.0716 
     19 N          27.8941   27.5002   -1.1281 N.am      5 UNK        -0.4135 
     20 C          26.9983   27.8355   -2.0624 C.2       4 UNK         0.5031 
     21 O          26.7670   28.9974   -2.3992 O.2       4 UNK        -0.5229 
     22 CA         26.2166   26.6841   -2.7073 C.3       4 UNK         0.0329 
     23 CB         27.1462   25.7878   -3.5445 C.3       4 UNK        -0.2001 
     24 N          25.5600   25.8803   -1.6772 N.am      4 UNK        -0.4303 
     25 C          24.2337   25.7543   -1.5275 C.2       3 UNK         0.5044 
     26 O          23.4033   26.2416   -2.2957 O.2       3 UNK        -0.5152 
     27 CA         23.7385   24.9509   -0.3076 C.3       3 UNK         0.0319 
     28 CB         23.4358   23.4980   -0.7081 C.3       3 UNK        -0.2001 
     29 N          24.6845   24.9539    0.8118 N.am      3 UNK        -0.4354 
     30 C          25.0383   26.0439    1.5077 C.2       2 UNK         0.4964 
     31 O          24.5045   27.1425    1.3618 O.2       2 UNK        -0.5047 
     32 CA         26.1970   25.9045    2.5124 C.3       2 UNK         0.0288 
     33 CB         25.6769   25.9762    3.9570 C.3       2 UNK        -0.2113 
     34 N          27.0194   24.6979    2.3595 N.am      2 UNK        -0.4145 
     35 C          27.7846   24.3866    1.3004 C.2       1 UNK         0.5006 
     36 O          27.7834   25.0394    0.2534 O.2       1 UNK        -0.5103 
     37 C          28.1232   28.9639    0.8271 C.2       5 UNK         0.5055 
     38 O          28.6369   28.7584    1.9241 O.2       5 UNK        -0.5220 
     39 N          26.9722   29.6317    0.6698 N.am      6 UNK        -0.4450 
     40 CA         26.1220   30.1066    1.7695 C.3       6 UNK         0.0367 
     41 CB         24.8538   30.7580    1.1958 C.3       6 UNK        -0.1929 
     42 C          26.8258   31.0537    2.7576 C.2       6 UNK         0.5070 
     43 O          26.6600   30.8967    3.9675 O.2       6 UNK        -0.5237 
     44 N          27.6089   32.0026    2.2284 N.am      7 UNK        -0.4739 
     45 CA         28.4093   32.9369    3.0259 C.3       7 UNK         0.0276 
     46 CB         28.5146   34.2768    2.2793 C.3       7 UNK        -0.1927 
     47 C          29.8126   32.3901    3.3370 C.2       7 UNK         0.5013 
     48 O          30.3600   32.6958    4.3967 O.2       7 UNK        -0.5193 
     49 N          30.3791   31.6130    2.4037 N.am      8 UNK        -0.4253 
     50 CA         31.7590   31.1209    2.4544 C.3       8 UNK         0.0242 
     51 CB         32.2930   30.9619    1.0201 C.3       8 UNK        -0.2000 
     52 C          31.9509   29.8366    3.2814 C.2       8 UNK         0.4948 
     53 O          33.0995   29.4549    3.5053 O.2       8 UNK        -0.5275 
     54 N          30.8577   29.2089    3.7443 N.am      9 UNK        -0.4246 
     55 CA         30.8129   27.9674    4.5335 C.3       9 UNK         0.0261 
     56 CB         29.3535   27.6626    4.9208 C.3       9 UNK        -0.1959 
     57 C          31.6993   27.9261    5.7932 C.2       9 UNK         0.5033 
     58 O          32.0570   26.8326    6.2322 O.2       9 UNK        -0.5390 
     59 N          32.0522   29.0969    6.3419 N.am      10 UNK        -0.4215 
     60 CA         33.0166   29.2521    7.4341 C.3       10 UNK         0.0240 
     61 CB         32.9924   30.7092    7.9239 C.3       10 UNK        -0.1982 
     62 C          34.4524   28.8351    7.0555 C.2       10 UNK         0.4970 
     63 O          35.2097   28.4465    7.9453 O.2       10 UNK        -0.4916 
     64 N          34.7976   28.9170    5.7610 N.am      11 UNK        -0.4279 
     65 CA         36.0866   28.5173    5.1711 C.3       11 UNK         0.1003 
     66 C          37.3269   29.3429    5.6359 C.2       11 UNK         0.5709 
     67 N          37.1538   30.4986    6.2666 N.am      11 UNK        -0.7358 
     68 O          38.4667   28.9574    5.3851 O.2       11 UNK        -0.4999 
     69 C69        36.2947   26.9672    5.2129 C.3       12 UNK        -0.0954 
     70 S70        36.0915   26.2103    3.5680 S.3       12 UNK        -0.2268 
     71 C71        34.2926   25.9551    3.5480 C.3       12 UNK         0.0203 
     72 H72        31.2321   24.1547    3.3200 H         1 UNK         0.0888 
     73 H73        29.7754   25.1517    3.1821 H         1 UNK         0.0888 
     74 H74        30.4547   24.7864    4.7610 H         1 UNK         0.0888 
     75 H75        28.2607   21.7605    2.9450 H         1 UNK         0.3017 
     76 H76        28.1623   22.3590    0.8733 H         1 UNK         0.0873 
     77 H77        29.8983   23.4605   -0.3684 H         1 UNK         0.0745 
     78 H78        30.5221   24.2608    1.0408 H         1 UNK         0.0745 
     79 H79        33.5775   21.8900    0.3920 H         1 UNK         0.0705 
     80 H80        32.6248   22.4550   -0.9566 H         1 UNK         0.0705 
     81 H81        33.7510   23.4889    2.4917 H         1 UNK         0.1334 
     82 H82        33.7145   27.6682    1.5254 H         1 UNK         0.1417 
     83 H83        32.4926   24.7806   -1.3993 H         1 UNK         0.1562 
     84 H84        33.4896   27.3475   -1.8978 H         1 UNK         0.0748 
     85 H85        33.0128   28.4360   -0.6184 H         1 UNK         0.0748 
     86 H86        30.7674   28.3239    0.5312 H         1 UNK         0.0940 
     87 H87        29.9988   26.7753    0.3769 H         1 UNK         0.0940 
     88 H88        29.0009   29.2830   -1.0819 H         1 UNK         0.0703 
     89 H89        27.9703   26.5287   -0.8390 H         1 UNK         0.3081 
     90 H90        25.4796   27.1266   -3.3809 H         1 UNK         0.0719 
     91 H91        27.8972   25.2882   -2.9308 H         1 UNK         0.0809 
     92 H92        26.5805   25.0177   -4.0690 H         1 UNK         0.0809 
     93 H93        27.6757   26.3711   -4.2991 H         1 UNK         0.0809 
     94 H94        26.1625   25.4592   -0.9791 H         1 UNK         0.2990 
     95 H95        22.8106   25.4135    0.0356 H         1 UNK         0.0690 
     96 H96        23.0124   22.9360    0.1246 H         1 UNK         0.0788 
     97 H97        24.3321   22.9764   -1.0465 H         1 UNK         0.0788 
     98 H98        22.7109   23.4615   -1.5227 H         1 UNK         0.0788 
     99 H99        25.1549   24.0843    1.0136 H         1 UNK         0.2993 
    100 H100       26.8520   26.7615    2.3500 H         1 UNK         0.0949 
    101 H101       25.0979   26.8867    4.1193 H         1 UNK         0.0767 
    102 H102       25.0302   25.1308    4.1955 H         1 UNK         0.0767 
    103 H103       26.4975   25.9873    4.6748 H         1 UNK         0.0767 
    104 H104       27.0559   24.0811    3.1586 H         1 UNK         0.3013 
    105 H105       26.6151   29.7430   -0.2716 H         1 UNK         0.3121 
    106 H106       25.8188   29.2282    2.3420 H         1 UNK         0.0774 
    107 H107       24.1999   31.1094    1.9952 H         1 UNK         0.0815 
    108 H108       25.0873   31.6150    0.5632 H         1 UNK         0.0815 
    109 H109       24.2800   30.0459    0.6018 H         1 UNK         0.0815 
    110 H110       27.6652   32.0781    1.2228 H         1 UNK         0.2987 
    111 H111       27.9110   33.1247    3.9801 H         1 UNK         0.0949 
    112 H112       29.0077   34.1674    1.3125 H         1 UNK         0.0806 
    113 H113       27.5301   34.7121    2.1068 H         1 UNK         0.0806 
    114 H114       29.0899   35.0011    2.8580 H         1 UNK         0.0806 
    115 H115       29.8427   31.3869    1.5806 H         1 UNK         0.3010 
    116 H116       32.3766   31.8788    2.9417 H         1 UNK         0.0829 
    117 H117       32.3905   31.9324    0.5331 H         1 UNK         0.0813 
    118 H118       33.2823   30.5018    1.0113 H         1 UNK         0.0813 
    119 H119       31.6392   30.3523    0.4002 H         1 UNK         0.0813 
    120 H120       29.9582   29.5445    3.4198 H         1 UNK         0.3038 
    121 H121       31.1698   27.1712    3.8781 H         1 UNK         0.0769 
    122 H122       28.8801   28.5145    5.4102 H         1 UNK         0.0811 
    123 H123       29.2895   26.8179    5.6082 H         1 UNK         0.0811 
    124 H124       28.7540   27.4006    4.0508 H         1 UNK         0.0811 
    125 H125       31.7003   29.9426    5.9166 H         1 UNK         0.3204 
    126 H126       32.6962   28.6080    8.2557 H         1 UNK         0.0748 
    127 H127       33.6856   30.8540    8.7539 H         1 UNK         0.0771 
    128 H128       33.2772   31.4065    7.1348 H         1 UNK         0.0771 
    129 H129       32.0014   30.9917    8.2799 H         1 UNK         0.0771 
    130 H130       34.1062   29.2318    5.0847 H         1 UNK         0.2980 
    131 H131       35.9887   28.8199    4.1280 H         1 UNK         0.0545 
    132 H132       36.2269   30.8361    6.4680 H         1 UNK         0.3459 
    133 H133       37.9606   31.0321    6.5497 H         1 UNK         0.3459 
    134 H134       37.2879   26.6929    5.5713 H         1 UNK         0.0616 
    135 H135       35.6062   26.4832    5.9074 H         1 UNK         0.0616 
    136 H136       34.0266   25.1684    4.2557 H         1 UNK         0.0634 
    137 H137       33.7968   26.8616    3.8944 H         1 UNK         0.0634 
@<TRIPOS>BOND
     1    1    2 1    
     2    1   72 1    
     3    1   73 1    
     4    1   74 1    
     5    2    3 2    
     6    2    4 am   BACKBONE|DICT|INTERRES
     7    4    5 1    
     8    4   75 1    
     9    5    6 1    
    10    5   35 1    
    11    5   76 1    
    12    6    7 1    
    13    6   77 1    
    14    6   78 1    
    15    7    8 1    
    16    8    9 1    
    17    8   79 1    
    18    8   80 1    
    19    9   10 ar   
    20    9   14 ar   
    21   10   11 ar   
    22   10   81 1    
    23   11   12 ar   
    24   11   71 1    
    25   12   13 ar   
    26   12   82 1    
    27   13   14 ar   
    28   13   15 1    
    29   14   83 1    
    30   15   16 1    
    31   15   84 1    
    32   15   85 1    
    33   16   17 1    
    34   17   18 1    
    35   17   86 1    
    36   17   87 1    
    37   18   19 1    
    38   18   37 1    
    39   18   88 1    
    40   19   20 am   BACKBONE|DICT|INTERRES
    41   19   89 1    
    42   20   21 2    
    43   20   22 1    
    44   22   23 1    
    45   22   24 1    
    46   22   90 1    
    47   23   91 1    
    48   23   92 1    
    49   23   93 1    
    50   24   25 am   BACKBONE|DICT|INTERRES
    51   24   94 1    
    52   25   26 2    
    53   25   27 1    
    54   27   28 1    
    55   27   29 1    
    56   27   95 1    
    57   28   96 1    
    58   28   97 1    
    59   28   98 1    
    60   29   30 am   BACKBONE|DICT|INTERRES
    61   29   99 1    
    62   30   31 2    
    63   30   32 1    
    64   32   33 1    
    65   32   34 1    
    66   32  100 1    
    67   33  101 1    
    68   33  102 1    
    69   33  103 1    
    70   34   35 am   BACKBONE|DICT|INTERRES
    71   34  104 1    
    72   35   36 2    
    73   37   38 2    
    74   37   39 am   BACKBONE|DICT|INTERRES
    75   39   40 1    
    76   39  105 1    
    77   40   41 1    
    78   40   42 1    
    79   40  106 1    
    80   41  107 1    
    81   41  108 1    
    82   41  109 1    
    83   42   43 2    
    84   42   44 am   BACKBONE|DICT|INTERRES
    85   44   45 1    
    86   44  110 1    
    87   45   46 1    
    88   45   47 1    
    89   45  111 1    
    90   46  112 1    
    91   46  113 1    
    92   46  114 1    
    93   47   48 2    
    94   47   49 am   BACKBONE|DICT|INTERRES
    95   49   50 1    
    96   49  115 1    
    97   50   51 1    
    98   50   52 1    
    99   50  116 1    
   100   51  117 1    
   101   51  118 1    
   102   51  119 1    
   103   52   53 2    
   104   52   54 am   BACKBONE|DICT|INTERRES
   105   54   55 1    
   106   54  120 1    
   107   55   56 1    
   108   55   57 1    
   109   55  121 1    
   110   56  122 1    
   111   56  123 1    
   112   56  124 1    
   113   57   58 2    
   114   57   59 am   BACKBONE|DICT|INTERRES
   115   59   60 1    
   116   59  125 1    
   117   60   61 1    
   118   60   62 1    
   119   60  126 1    
   120   61  127 1    
   121   61  128 1    
   122   61  129 1    
   123   62   63 2    
   124   62   64 am   BACKBONE|DICT|INTERRES
   125   64   65 1    
   126   64  130 1    
   127   65   66 1    
   128   65   69 1    
   129   65  131 1    
   130   66   67 am   BACKBONE|DICT|INTERRES
   131   66   68 2    
   132   67  132 1    
   133   67  133 1    
   134   69   70 1    
   135   69  134 1    
   136   69  135 1    
   137   70   71 1    
   138   71  136 1    
   139   71  137 1    
@<TRIPOS>SUBSTRUCTURE
     1 UNK         1 GROUP             0       ****    0 ROOT    
