@<TRIPOS>MOLECULE
3R136
137   139    1
SMALL
USER_CHARGES


@<TRIPOS>ATOM
      1 CA         33.2698   22.0325   -2.5863 C.3       0 UNK        -0.1979 
      2 C          32.4999   23.1803   -1.9502 C.2       0 UNK         0.4864 
      3 O          32.2731   24.1991   -2.6038 O.2       0 UNK        -0.5359 
      4 N          32.1007   23.0211   -0.6812 N.am      1 UNK        -0.4318 
      5 CA         31.3214   23.9971    0.0908 C.3       1 UNK         0.0824 
      6 C6         31.3254   23.6644    1.6048 C.3       12 UNK        -0.0944 
      7 S7         30.7247   21.9783    1.9933 S.3       12 UNK        -0.2672 
      8 C8         31.2910   21.7571    3.7123 C.3       12 UNK         0.0333 
      9 C9         30.8382   22.8884    4.6258 C.ar      12 UNK        -0.0807 
     10 C10        31.7836   23.6318    5.3387 C.ar      12 UNK        -0.0894 
     11 C11        31.3856   24.7094    6.1343 C.ar      12 UNK        -0.0804 
     12 C12        30.0291   25.0310    6.2279 C.ar      12 UNK        -0.0824 
     13 C13        29.0742   24.2989    5.5149 C.ar      12 UNK        -0.0762 
     14 C14        29.4823   23.2156    4.7326 C.ar      12 UNK        -0.0782 
     15 C15        27.6095   24.7167    5.5414 C.3       12 UNK         0.0230 
     16 S16        27.1088   25.5201    3.9805 S.3       12 UNK        -0.2608 
     17 C17        28.3953   26.8060    3.8182 C.3       12 UNK        -0.0989 
     18 CA         27.9225   28.1057    3.1309 C.3       5 UNK         0.0716 
     19 N          27.4692   27.8714    1.7542 N.am      5 UNK        -0.4135 
     20 C          27.3788   28.7869    0.7792 C.2       4 UNK         0.5031 
     21 O          27.5810   29.9883    0.9586 O.2       4 UNK        -0.5229 
     22 CA         26.9821   28.3054   -0.6267 C.3       4 UNK         0.0329 
     23 CB         28.1722   28.4330   -1.5921 C.3       4 UNK        -0.2001 
     24 N          26.4725   26.9315   -0.6700 N.am      4 UNK        -0.4303 
     25 C          25.2615   26.5462   -0.2376 C.2       3 UNK         0.5044 
     26 O          24.4662   27.3137    0.3055 O.2       3 UNK        -0.5152 
     27 CA         24.8522   25.0756   -0.4581 C.3       3 UNK         0.0319 
     28 CB         23.5433   24.9887   -1.2629 C.3       3 UNK        -0.2001 
     29 N          25.8843   24.3098   -1.1622 N.am      3 UNK        -0.4354 
     30 C          26.8397   23.5799   -0.5734 C.2       2 UNK         0.4964 
     31 O          26.8901   23.3736    0.6401 O.2       2 UNK        -0.5047 
     32 CA         27.9284   22.9836   -1.4925 C.3       2 UNK         0.0288 
     33 CB         27.9412   23.5726   -2.9231 C.3       2 UNK        -0.2113 
     34 N          29.2702   23.0803   -0.9065 N.am      2 UNK        -0.4145 
     35 C          29.8875   24.1855   -0.4547 C.2       1 UNK         0.5006 
     36 O          29.3888   25.3128   -0.4735 O.2       1 UNK        -0.5103 
     37 C          27.0120   28.9870    4.0193 C.2       5 UNK         0.5055 
     38 O          27.2477   29.0786    5.2258 O.2       5 UNK        -0.5220 
     39 N          26.0433   29.6878    3.4149 N.am      6 UNK        -0.4450 
     40 CA         25.4325   30.8930    3.9775 C.3       6 UNK         0.0367 
     41 CB         24.2041   31.2789    3.1388 C.3       6 UNK        -0.1929 
     42 C          26.4387   32.0622    4.0403 C.2       6 UNK         0.5070 
     43 O          26.3196   32.9087    4.9264 O.2       6 UNK        -0.5237 
     44 N          27.4202   32.0729    3.1255 N.am      7 UNK        -0.4739 
     45 CA         28.5858   32.9524    3.1502 C.3       7 UNK         0.0276 
     46 CB         28.8329   33.4925    1.7323 C.3       7 UNK        -0.1927 
     47 C          29.8014   32.1450    3.6259 C.2       7 UNK         0.5013 
     48 O          29.9756   30.9996    3.2035 O.2       7 UNK        -0.5193 
     49 N          30.6506   32.7640    4.4576 N.am      8 UNK        -0.4253 
     50 CA         31.8546   32.1462    5.0312 C.3       8 UNK         0.0242 
     51 CB         32.4668   33.0932    6.0753 C.3       8 UNK        -0.2000 
     52 C          32.9152   31.7393    3.9921 C.2       8 UNK         0.4948 
     53 O          33.6801   30.8077    4.2435 O.2       8 UNK        -0.5275 
     54 N          32.9203   32.4076    2.8294 N.am      9 UNK        -0.4246 
     55 CA         33.8183   32.1623    1.6945 C.3       9 UNK         0.0261 
     56 CB         33.5204   33.1949    0.5947 C.3       9 UNK        -0.1959 
     57 C          33.7673   30.7333    1.1158 C.2       9 UNK         0.5033 
     58 O          34.7053   30.3384    0.4221 O.2       9 UNK        -0.5390 
     59 N          32.6980   29.9810    1.4125 N.am      10 UNK        -0.4215 
     60 CA         32.5382   28.5742    1.0444 C.3       10 UNK         0.0240 
     61 CB         31.0842   28.1603    1.3007 C.3       10 UNK        -0.1982 
     62 C          33.4867   27.6163    1.7902 C.2       10 UNK         0.4970 
     63 O          33.7117   26.5148    1.2868 O.2       10 UNK        -0.4916 
     64 N          34.0061   28.0169    2.9604 N.am      11 UNK        -0.4279 
     65 CA         34.8693   27.1696    3.7994 C.3       11 UNK         0.1003 
     66 C          35.9628   27.9236    4.6061 C.2       11 UNK         0.5709 
     67 N          35.9284   29.2437    4.7335 N.am      11 UNK        -0.7358 
     68 O          36.8922   27.2931    5.1053 O.2       11 UNK        -0.4999 
     69 C69        34.0522   26.1732    4.6664 C.3       12 UNK        -0.0954 
     70 S70        32.9491   26.9780    5.8795 S.3       12 UNK        -0.2268 
     71 C71        32.4197   25.5463    6.8722 C.3       12 UNK         0.0203 
     72 H72        33.4099   21.2018   -1.8947 H         1 UNK         0.0888 
     73 H73        32.7343   21.6602   -3.4593 H         1 UNK         0.0888 
     74 H74        34.2531   22.3737   -2.9091 H         1 UNK         0.0888 
     75 H75        32.3195   22.1642   -0.1923 H         1 UNK         0.3017 
     76 H76        31.8193   24.9620   -0.0277 H         1 UNK         0.0873 
     77 H77        32.3405   23.7666    1.9926 H         1 UNK         0.0745 
     78 H78        30.7262   24.3918    2.1567 H         1 UNK         0.0745 
     79 H79        32.3785   21.6679    3.7118 H         1 UNK         0.0705 
     80 H80        30.9031   20.8123    4.0952 H         1 UNK         0.0705 
     81 H81        32.8342   23.3892    5.2561 H         1 UNK         0.1334 
     82 H82        29.7222   25.8766    6.8284 H         1 UNK         0.1417 
     83 H83        28.7485   22.6584    4.1655 H         1 UNK         0.1562 
     84 H84        27.4168   25.3992    6.3708 H         1 UNK         0.0748 
     85 H85        26.9810   23.8413    5.7109 H         1 UNK         0.0748 
     86 H86        29.2232   26.3730    3.2539 H         1 UNK         0.0940 
     87 H87        28.8104   27.0419    4.7988 H         1 UNK         0.0940 
     88 H88        28.8153   28.7205    3.0322 H         1 UNK         0.0703 
     89 H89        27.2585   26.9110    1.5240 H         1 UNK         0.3081 
     90 H90        26.1905   28.9700   -0.9793 H         1 UNK         0.0719 
     91 H91        29.0104   27.8061   -1.2871 H         1 UNK         0.0809 
     92 H92        27.8937   28.1521   -2.6079 H         1 UNK         0.0809 
     93 H93        28.5353   29.4611   -1.6299 H         1 UNK         0.0809 
     94 H94        27.0976   26.2323   -1.0476 H         1 UNK         0.2990 
     95 H95        24.6733   24.6400    0.5272 H         1 UNK         0.0690 
     96 H96        23.6438   25.4426   -2.2496 H         1 UNK         0.0788 
     97 H97        22.7308   25.5038   -0.7484 H         1 UNK         0.0788 
     98 H98        23.2305   23.9534   -1.3995 H         1 UNK         0.0788 
     99 H99        25.9154   24.4153   -2.1668 H         1 UNK         0.2993 
    100 H100       27.7034   21.9189   -1.5711 H         1 UNK         0.0949 
    101 H101       28.1043   24.6513   -2.9202 H         1 UNK         0.0767 
    102 H102       28.7374   23.1261   -3.5195 H         1 UNK         0.0767 
    103 H103       27.0074   23.3721   -3.4499 H         1 UNK         0.0767 
    104 H104       29.7594   22.2044   -0.7901 H         1 UNK         0.3013 
    105 H105       25.9449   29.5632    2.4168 H         1 UNK         0.3121 
    106 H106       25.1040   30.6744    4.9958 H         1 UNK         0.0774 
    107 H107       23.7145   32.1625    3.5507 H         1 UNK         0.0815 
    108 H108       24.4743   31.5070    2.1068 H         1 UNK         0.0815 
    109 H109       23.4657   30.4771    3.1239 H         1 UNK         0.0815 
    110 H110       27.4722   31.3134    2.4513 H         1 UNK         0.2987 
    111 H111       28.4191   33.7945    3.8256 H         1 UNK         0.0949 
    112 H112       29.0204   32.6863    1.0209 H         1 UNK         0.0806 
    113 H113       27.9758   34.0615    1.3719 H         1 UNK         0.0806 
    114 H114       29.6968   34.1579    1.7095 H         1 UNK         0.0806 
    115 H115       30.4466   33.7098    4.7488 H         1 UNK         0.3010 
    116 H116       31.5431   31.2317    5.5409 H         1 UNK         0.0829 
    117 H117       33.3496   32.6470    6.5360 H         1 UNK         0.0813 
    118 H118       32.7750   34.0406    5.6314 H         1 UNK         0.0813 
    119 H119       31.7614   33.3102    6.8777 H         1 UNK         0.0813 
    120 H120       32.2481   33.1519    2.7167 H         1 UNK         0.3038 
    121 H121       34.8382   32.3231    2.0497 H         1 UNK         0.0769 
    122 H122       34.1905   33.0647   -0.2565 H         1 UNK         0.0811 
    123 H123       33.6575   34.2139    0.9569 H         1 UNK         0.0811 
    124 H124       32.4993   33.1034    0.2220 H         1 UNK         0.0811 
    125 H125       31.9675   30.3861    1.9850 H         1 UNK         0.3204 
    126 H126       32.7412   28.4794   -0.0243 H         1 UNK         0.0748 
    127 H127       30.8883   27.1538    0.9303 H         1 UNK         0.0771 
    128 H128       30.8663   28.1628    2.3682 H         1 UNK         0.0771 
    129 H129       30.3833   28.8329    0.8067 H         1 UNK         0.0771 
    130 H130       33.7869   28.9361    3.3257 H         1 UNK         0.2980 
    131 H131       35.4621   26.5597    3.1147 H         1 UNK         0.0545 
    132 H132       36.6665   29.6944    5.2492 H         1 UNK         0.3459 
    133 H133       35.1292   29.7950    4.4300 H         1 UNK         0.3459 
    134 H134       33.4411   25.5453    4.0169 H         1 UNK         0.0616 
    135 H135       34.7225   25.4924    5.1938 H         1 UNK         0.0616 
    136 H136       31.9985   25.9083    7.8113 H         1 UNK         0.0634 
    137 H137       33.2862   24.9404    7.1412 H         1 UNK         0.0634 
@<TRIPOS>BOND
     1    1    2 1    
     2    1   72 1    
     3    1   73 1    
     4    1   74 1    
     5    2    3 2    
     6    2    4 am   BACKBONE|DICT|INTERRES
     7    4    5 1    
     8    4   75 1    
     9    5    6 1    
    10    5   35 1    
    11    5   76 1    
    12    6    7 1    
    13    6   77 1    
    14    6   78 1    
    15    7    8 1    
    16    8    9 1    
    17    8   79 1    
    18    8   80 1    
    19    9   10 ar   
    20    9   14 ar   
    21   10   11 ar   
    22   10   81 1    
    23   11   12 ar   
    24   11   71 1    
    25   12   13 ar   
    26   12   82 1    
    27   13   14 ar   
    28   13   15 1    
    29   14   83 1    
    30   15   16 1    
    31   15   84 1    
    32   15   85 1    
    33   16   17 1    
    34   17   18 1    
    35   17   86 1    
    36   17   87 1    
    37   18   19 1    
    38   18   37 1    
    39   18   88 1    
    40   19   20 am   BACKBONE|DICT|INTERRES
    41   19   89 1    
    42   20   21 2    
    43   20   22 1    
    44   22   23 1    
    45   22   24 1    
    46   22   90 1    
    47   23   91 1    
    48   23   92 1    
    49   23   93 1    
    50   24   25 am   BACKBONE|DICT|INTERRES
    51   24   94 1    
    52   25   26 2    
    53   25   27 1    
    54   27   28 1    
    55   27   29 1    
    56   27   95 1    
    57   28   96 1    
    58   28   97 1    
    59   28   98 1    
    60   29   30 am   BACKBONE|DICT|INTERRES
    61   29   99 1    
    62   30   31 2    
    63   30   32 1    
    64   32   33 1    
    65   32   34 1    
    66   32  100 1    
    67   33  101 1    
    68   33  102 1    
    69   33  103 1    
    70   34   35 am   BACKBONE|DICT|INTERRES
    71   34  104 1    
    72   35   36 2    
    73   37   38 2    
    74   37   39 am   BACKBONE|DICT|INTERRES
    75   39   40 1    
    76   39  105 1    
    77   40   41 1    
    78   40   42 1    
    79   40  106 1    
    80   41  107 1    
    81   41  108 1    
    82   41  109 1    
    83   42   43 2    
    84   42   44 am   BACKBONE|DICT|INTERRES
    85   44   45 1    
    86   44  110 1    
    87   45   46 1    
    88   45   47 1    
    89   45  111 1    
    90   46  112 1    
    91   46  113 1    
    92   46  114 1    
    93   47   48 2    
    94   47   49 am   BACKBONE|DICT|INTERRES
    95   49   50 1    
    96   49  115 1    
    97   50   51 1    
    98   50   52 1    
    99   50  116 1    
   100   51  117 1    
   101   51  118 1    
   102   51  119 1    
   103   52   53 2    
   104   52   54 am   BACKBONE|DICT|INTERRES
   105   54   55 1    
   106   54  120 1    
   107   55   56 1    
   108   55   57 1    
   109   55  121 1    
   110   56  122 1    
   111   56  123 1    
   112   56  124 1    
   113   57   58 2    
   114   57   59 am   BACKBONE|DICT|INTERRES
   115   59   60 1    
   116   59  125 1    
   117   60   61 1    
   118   60   62 1    
   119   60  126 1    
   120   61  127 1    
   121   61  128 1    
   122   61  129 1    
   123   62   63 2    
   124   62   64 am   BACKBONE|DICT|INTERRES
   125   64   65 1    
   126   64  130 1    
   127   65   66 1    
   128   65   69 1    
   129   65  131 1    
   130   66   67 am   BACKBONE|DICT|INTERRES
   131   66   68 2    
   132   67  132 1    
   133   67  133 1    
   134   69   70 1    
   135   69  134 1    
   136   69  135 1    
   137   70   71 1    
   138   71  136 1    
   139   71  137 1    
@<TRIPOS>SUBSTRUCTURE
     1 UNK         1 GROUP             0       ****    0 ROOT    
