@<TRIPOS>MOLECULE
3R136
137   139    1
SMALL
USER_CHARGES


@<TRIPOS>ATOM
      1 CA         24.2053   26.5516    1.2966 C.3       0 UNK        -0.1979 
      2 C          25.5249   25.8756    1.6343 C.2       0 UNK         0.4864 
      3 O          26.4903   26.0156    0.8826 O.2       0 UNK        -0.5359 
      4 N          25.5716   25.1430    2.7549 N.am      1 UNK        -0.4318 
      5 CA         26.7430   24.4266    3.2698 C.3       1 UNK         0.0824 
      6 C6         27.8082   25.3941    3.8591 C.3       12 UNK        -0.0944 
      7 S7         28.8824   24.5665    5.0804 S.3       12 UNK        -0.2672 
      8 C8         30.2378   25.7673    5.2592 C.3       12 UNK         0.0333 
      9 C9         31.1954   25.7068    4.0803 C.ar      12 UNK        -0.0807 
     10 C10        32.2069   24.7440    4.0513 C.ar      12 UNK        -0.0894 
     11 C11        33.0868   24.6720    2.9679 C.ar      12 UNK        -0.0804 
     12 C12        32.9265   25.5504    1.8928 C.ar      12 UNK        -0.0824 
     13 C13        31.9197   26.5214    1.9107 C.ar      12 UNK        -0.0762 
     14 C14        31.0735   26.6088    3.0206 C.ar      12 UNK        -0.0782 
     15 C15        31.7573   27.4727    0.7330 C.3       12 UNK         0.0230 
     16 S16        30.1617   27.2428   -0.1178 S.3       12 UNK        -0.2608 
     17 C17        29.0620   28.3728    0.8060 C.3       12 UNK        -0.0989 
     18 CA         28.0519   29.0916   -0.1206 C.3       5 UNK         0.0716 
     19 N          27.1693   28.1227   -0.7595 N.am      5 UNK        -0.4135 
     20 C          26.4515   28.3133   -1.8680 C.2       4 UNK         0.5031 
     21 O          26.4522   29.3611   -2.5185 O.2       4 UNK        -0.5229 
     22 CA         25.6081   27.1032   -2.3212 C.3       4 UNK         0.0329 
     23 CB         25.0130   27.2784   -3.7349 C.3       4 UNK        -0.2001 
     24 N          26.3336   25.8253   -2.2132 N.am      4 UNK        -0.4303 
     25 C          27.4802   25.4995   -2.8287 C.2       3 UNK         0.5044 
     26 O          28.1044   26.2604   -3.5706 O.2       3 UNK        -0.5152 
     27 CA         28.0099   24.0806   -2.5722 C.3       3 UNK         0.0319 
     28 CB         29.1968   23.7236   -3.4971 C.3       3 UNK        -0.2001 
     29 N          28.3909   23.9051   -1.1672 N.am      3 UNK        -0.4354 
     30 C          28.5817   22.7076   -0.5933 C.2       2 UNK         0.4964 
     31 O          28.3333   21.6365   -1.1494 O.2       2 UNK        -0.5047 
     32 CA         29.1840   22.6813    0.8215 C.3       2 UNK         0.0288 
     33 CB         30.6847   23.0085    0.7770 C.3       2 UNK        -0.2113 
     34 N          28.5194   23.5729    1.7696 N.am      2 UNK        -0.4145 
     35 C          27.2731   23.4044    2.2343 C.2       1 UNK         0.5006 
     36 O          26.5363   22.4774    1.8887 O.2       1 UNK        -0.5103 
     37 C          27.2237   30.1085    0.6852 C.2       5 UNK         0.5055 
     38 O          26.1482   29.7710    1.1897 O.2       5 UNK        -0.5220 
     39 N          27.7702   31.3198    0.8560 N.am      6 UNK        -0.4450 
     40 CA         27.2203   32.3733    1.7145 C.3       6 UNK         0.0367 
     41 CB         27.8003   33.7352    1.2888 C.3       6 UNK        -0.1929 
     42 C          27.4736   32.0612    3.2027 C.2       6 UNK         0.5070 
     43 O          28.3159   32.6987    3.8372 O.2       6 UNK        -0.5237 
     44 N          26.7658   31.0439    3.7103 N.am      7 UNK        -0.4739 
     45 CA         26.7707   30.4824    5.0684 C.3       7 UNK         0.0276 
     46 CB         26.3493   31.5294    6.1183 C.3       7 UNK        -0.1927 
     47 C          28.0838   29.7874    5.4688 C.2       7 UNK         0.5013 
     48 O          28.0434   28.6305    5.8848 O.2       7 UNK        -0.5193 
     49 N          29.2122   30.4913    5.3397 N.am      8 UNK        -0.4253 
     50 CA         30.5532   30.0353    5.7032 C.3       8 UNK         0.0242 
     51 CB         30.7476   30.0951    7.2327 C.3       8 UNK        -0.2000 
     52 C          31.5934   30.8558    4.9292 C.2       8 UNK         0.4948 
     53 O          32.4757   31.4702    5.5303 O.2       8 UNK        -0.5275 
     54 N          31.4528   30.8727    3.5966 N.am      9 UNK        -0.4246 
     55 CA         32.3160   31.6229    2.6764 C.3       9 UNK         0.0261 
     56 CB         31.6108   31.7526    1.3159 C.3       9 UNK        -0.1959 
     57 C          33.7303   31.0330    2.5030 C.2       9 UNK         0.5033 
     58 O          34.5997   31.7212    1.9659 O.2       9 UNK        -0.5390 
     59 N          33.9425   29.7885    2.9444 N.am      10 UNK        -0.4215 
     60 CA         35.2150   29.0754    2.9270 C.3       10 UNK         0.0240 
     61 CB         35.4527   28.4519    1.5372 C.3       10 UNK        -0.1982 
     62 C          35.1976   28.0163    4.0382 C.2       10 UNK         0.4970 
     63 O          34.1673   27.8340    4.6922 O.2       10 UNK        -0.4916 
     64 N          36.3454   27.3529    4.2264 N.am      11 UNK        -0.4279 
     65 CA         36.5825   26.2648    5.1950 C.3       11 UNK         0.1003 
     66 C          36.5596   26.7010    6.6927 C.2       11 UNK         0.5709 
     67 N          36.6327   27.9886    7.0093 N.am      11 UNK        -0.7358 
     68 O          36.5140   25.8603    7.5882 O.2       11 UNK        -0.4999 
     69 C69        35.7162   24.9976    4.9304 C.3       12 UNK        -0.0954 
     70 S70        35.8434   24.3844    3.2136 S.3       12 UNK        -0.2268 
     71 C71        34.2020   23.6366    2.9530 C.3       12 UNK         0.0203 
     72 H72        24.3744   27.5991    1.0478 H         1 UNK         0.0888 
     73 H73        23.7424   26.0645    0.4392 H         1 UNK         0.0888 
     74 H74        23.5045   26.5132    2.1302 H         1 UNK         0.0888 
     75 H75        24.7303   25.0362    3.3043 H         1 UNK         0.3017 
     76 H76        26.3569   23.8261    4.0953 H         1 UNK         0.0873 
     77 H77        28.3942   25.8720    3.0753 H         1 UNK         0.0745 
     78 H78        27.3118   26.2107    4.3865 H         1 UNK         0.0745 
     79 H79        30.7801   25.5538    6.1815 H         1 UNK         0.0705 
     80 H80        29.8249   26.7686    5.3751 H         1 UNK         0.0705 
     81 H81        32.3109   24.0537    4.8771 H         1 UNK         0.1334 
     82 H82        33.5958   25.4784    1.0467 H         1 UNK         0.1417 
     83 H83        30.3030   27.3635    3.0550 H         1 UNK         0.1562 
     84 H84        32.5493   27.3059    0.0014 H         1 UNK         0.0748 
     85 H85        31.8774   28.5011    1.0702 H         1 UNK         0.0748 
     86 H86        29.6680   29.1032    1.3424 H         1 UNK         0.0940 
     87 H87        28.5326   27.7951    1.5660 H         1 UNK         0.0940 
     88 H88        28.5994   29.6274   -0.8992 H         1 UNK         0.0703 
     89 H89        27.0310   27.2543   -0.2432 H         1 UNK         0.3081 
     90 H90        24.7729   27.0420   -1.6230 H         1 UNK         0.0719 
     91 H91        24.3776   28.1636   -3.7842 H         1 UNK         0.0809 
     92 H92        25.7906   27.3953   -4.4904 H         1 UNK         0.0809 
     93 H93        24.3978   26.4236   -4.0155 H         1 UNK         0.0809 
     94 H94        25.9367   25.1500   -1.5739 H         1 UNK         0.2990 
     95 H95        27.1877   23.3985   -2.7991 H         1 UNK         0.0690 
     96 H96        28.9400   23.8848   -4.5450 H         1 UNK         0.0788 
     97 H97        29.4861   22.6774   -3.4003 H         1 UNK         0.0788 
     98 H98        30.0731   24.3343   -3.2763 H         1 UNK         0.0788 
     99 H99        28.5790   24.7481   -0.6392 H         1 UNK         0.2993 
    100 H100       29.0771   21.6622    1.2000 H         1 UNK         0.0949 
    101 H101       31.2101   22.3485    0.0855 H         1 UNK         0.0767 
    102 H102       30.8657   24.0334    0.4512 H         1 UNK         0.0767 
    103 H103       31.1443   22.8807    1.7570 H         1 UNK         0.0767 
    104 H104       29.0594   24.3530    2.1149 H         1 UNK         0.3013 
    105 H105       28.6533   31.5225    0.4109 H         1 UNK         0.3121 
    106 H106       26.1387   32.4183    1.5674 H         1 UNK         0.0774 
    107 H107       27.3777   34.5400    1.8918 H         1 UNK         0.0815 
    108 H108       28.8826   33.7788    1.4083 H         1 UNK         0.0815 
    109 H109       27.5678   33.9578    0.2473 H         1 UNK         0.0815 
    110 H110       26.1875   30.5396    3.0431 H         1 UNK         0.2987 
    111 H111       26.0035   29.7060    5.0633 H         1 UNK         0.0949 
    112 H112       26.2761   31.0779    7.1086 H         1 UNK         0.0806 
    113 H113       25.3732   31.9539    5.8837 H         1 UNK         0.0806 
    114 H114       27.0625   32.3509    6.1909 H         1 UNK         0.0806 
    115 H115       29.1353   31.4288    4.9465 H         1 UNK         0.3010 
    116 H116       30.6753   28.9988    5.3839 H         1 UNK         0.0829 
    117 H117       30.0398   29.4486    7.7513 H         1 UNK         0.0813 
    118 H118       31.7485   29.7637    7.5125 H         1 UNK         0.0813 
    119 H119       30.6178   31.1086    7.6140 H         1 UNK         0.0813 
    120 H120       30.6834   30.3645    3.1893 H         1 UNK         0.3038 
    121 H121       32.4414   32.6287    3.0837 H         1 UNK         0.0769 
    122 H122       30.6386   32.2301    1.4228 H         1 UNK         0.0811 
    123 H123       32.1965   32.3692    0.6324 H         1 UNK         0.0811 
    124 H124       31.4654   30.7871    0.8333 H         1 UNK         0.0811 
    125 H125       33.2135   29.3049    3.4539 H         1 UNK         0.3204 
    126 H126       36.0189   29.7793    3.1526 H         1 UNK         0.0748 
    127 H127       36.4191   27.9498    1.4846 H         1 UNK         0.0771 
    128 H128       34.6903   27.7140    1.2937 H         1 UNK         0.0771 
    129 H129       35.4442   29.2100    0.7539 H         1 UNK         0.0771 
    130 H130       37.1390   27.5897    3.6494 H         1 UNK         0.2980 
    131 H131       37.6187   25.9700    5.0265 H         1 UNK         0.0545 
    132 H132       36.6803   28.6907    6.2892 H         1 UNK         0.3459 
    133 H133       36.6299   28.2583    7.9802 H         1 UNK         0.3459 
    134 H134       36.0218   24.1810    5.5865 H         1 UNK         0.0616 
    135 H135       34.6753   25.2058    5.1754 H         1 UNK         0.0616 
    136 H136       34.1987   23.1201    1.9921 H         1 UNK         0.0634 
    137 H137       34.0336   22.8715    3.7124 H         1 UNK         0.0634 
@<TRIPOS>BOND
     1    1    2 1    
     2    1   72 1    
     3    1   73 1    
     4    1   74 1    
     5    2    3 2    
     6    2    4 am   BACKBONE|DICT|INTERRES
     7    4    5 1    
     8    4   75 1    
     9    5    6 1    
    10    5   35 1    
    11    5   76 1    
    12    6    7 1    
    13    6   77 1    
    14    6   78 1    
    15    7    8 1    
    16    8    9 1    
    17    8   79 1    
    18    8   80 1    
    19    9   10 ar   
    20    9   14 ar   
    21   10   11 ar   
    22   10   81 1    
    23   11   12 ar   
    24   11   71 1    
    25   12   13 ar   
    26   12   82 1    
    27   13   14 ar   
    28   13   15 1    
    29   14   83 1    
    30   15   16 1    
    31   15   84 1    
    32   15   85 1    
    33   16   17 1    
    34   17   18 1    
    35   17   86 1    
    36   17   87 1    
    37   18   19 1    
    38   18   37 1    
    39   18   88 1    
    40   19   20 am   BACKBONE|DICT|INTERRES
    41   19   89 1    
    42   20   21 2    
    43   20   22 1    
    44   22   23 1    
    45   22   24 1    
    46   22   90 1    
    47   23   91 1    
    48   23   92 1    
    49   23   93 1    
    50   24   25 am   BACKBONE|DICT|INTERRES
    51   24   94 1    
    52   25   26 2    
    53   25   27 1    
    54   27   28 1    
    55   27   29 1    
    56   27   95 1    
    57   28   96 1    
    58   28   97 1    
    59   28   98 1    
    60   29   30 am   BACKBONE|DICT|INTERRES
    61   29   99 1    
    62   30   31 2    
    63   30   32 1    
    64   32   33 1    
    65   32   34 1    
    66   32  100 1    
    67   33  101 1    
    68   33  102 1    
    69   33  103 1    
    70   34   35 am   BACKBONE|DICT|INTERRES
    71   34  104 1    
    72   35   36 2    
    73   37   38 2    
    74   37   39 am   BACKBONE|DICT|INTERRES
    75   39   40 1    
    76   39  105 1    
    77   40   41 1    
    78   40   42 1    
    79   40  106 1    
    80   41  107 1    
    81   41  108 1    
    82   41  109 1    
    83   42   43 2    
    84   42   44 am   BACKBONE|DICT|INTERRES
    85   44   45 1    
    86   44  110 1    
    87   45   46 1    
    88   45   47 1    
    89   45  111 1    
    90   46  112 1    
    91   46  113 1    
    92   46  114 1    
    93   47   48 2    
    94   47   49 am   BACKBONE|DICT|INTERRES
    95   49   50 1    
    96   49  115 1    
    97   50   51 1    
    98   50   52 1    
    99   50  116 1    
   100   51  117 1    
   101   51  118 1    
   102   51  119 1    
   103   52   53 2    
   104   52   54 am   BACKBONE|DICT|INTERRES
   105   54   55 1    
   106   54  120 1    
   107   55   56 1    
   108   55   57 1    
   109   55  121 1    
   110   56  122 1    
   111   56  123 1    
   112   56  124 1    
   113   57   58 2    
   114   57   59 am   BACKBONE|DICT|INTERRES
   115   59   60 1    
   116   59  125 1    
   117   60   61 1    
   118   60   62 1    
   119   60  126 1    
   120   61  127 1    
   121   61  128 1    
   122   61  129 1    
   123   62   63 2    
   124   62   64 am   BACKBONE|DICT|INTERRES
   125   64   65 1    
   126   64  130 1    
   127   65   66 1    
   128   65   69 1    
   129   65  131 1    
   130   66   67 am   BACKBONE|DICT|INTERRES
   131   66   68 2    
   132   67  132 1    
   133   67  133 1    
   134   69   70 1    
   135   69  134 1    
   136   69  135 1    
   137   70   71 1    
   138   71  136 1    
   139   71  137 1    
@<TRIPOS>SUBSTRUCTURE
     1 UNK         1 GROUP             0       ****    0 ROOT    
