@<TRIPOS>MOLECULE
3R136
137   139    1
SMALL
USER_CHARGES


@<TRIPOS>ATOM
      1 CA         27.9433   21.0584    3.0915 C.3       0 UNK        -0.1979 
      2 C          27.9785   20.4953    1.6799 C.2       0 UNK         0.4864 
      3 O          27.0563   19.7867    1.2746 O.2       0 UNK        -0.5359 
      4 N          29.0367   20.8180    0.9241 N.am      1 UNK        -0.4318 
      5 CA         29.1977   20.4538   -0.4892 C.3       1 UNK         0.0824 
      6 C6         30.6811   20.5279   -0.9378 C.3       12 UNK        -0.0944 
      7 S7         31.4497   22.1752   -0.7189 S.3       12 UNK        -0.2672 
      8 C8         32.5513   21.9247    0.7102 C.3       12 UNK         0.0333 
      9 C9         32.3315   23.0074    1.7553 C.ar      12 UNK        -0.0807 
     10 C10        32.9420   24.2565    1.6125 C.ar      12 UNK        -0.0894 
     11 C11        32.7391   25.2593    2.5653 C.ar      12 UNK        -0.0804 
     12 C12        31.9238   25.0023    3.6715 C.ar      12 UNK        -0.0824 
     13 C13        31.2979   23.7591    3.8222 C.ar      12 UNK        -0.0762 
     14 C14        31.5179   22.7635    2.8654 C.ar      12 UNK        -0.0782 
     15 C15        30.4047   23.4541    5.0220 C.3       12 UNK         0.0230 
     16 S16        29.2861   24.8099    5.5144 S.3       12 UNK        -0.2608 
     17 C17        28.4081   25.2631    3.9730 C.3       12 UNK        -0.0989 
     18 CA         28.6175   26.7575    3.6084 C.3       5 UNK         0.0716 
     19 N          28.3986   27.0098    2.1790 N.am      5 UNK        -0.4135 
     20 C          28.6576   28.1717    1.5553 C.2       4 UNK         0.5031 
     21 O          29.1799   29.1394    2.1090 O.2       4 UNK        -0.5229 
     22 CA         28.1924   28.3191    0.0933 C.3       4 UNK         0.0329 
     23 CB         29.3610   28.0480   -0.8652 C.3       4 UNK        -0.2001 
     24 N          27.0648   27.4614   -0.2840 N.am      4 UNK        -0.4303 
     25 C          25.8800   27.3687    0.3392 C.2       3 UNK         0.5044 
     26 O          25.5654   28.0557    1.3104 O.2       3 UNK        -0.5152 
     27 CA         24.8996   26.2917   -0.1665 C.3       3 UNK         0.0319 
     28 CB         23.7555   26.9415   -0.9609 C.3       3 UNK        -0.2001 
     29 N          25.5169   25.2376   -0.9838 N.am      3 UNK        -0.4354 
     30 C          26.4851   24.4040   -0.5776 C.2       2 UNK         0.4964 
     31 O          26.9835   24.4242    0.5538 O.2       2 UNK        -0.5047 
     32 CA         27.0245   23.4341   -1.6359 C.3       2 UNK         0.0288 
     33 CB         27.8149   24.1852   -2.7266 C.3       2 UNK        -0.2113 
     34 N          27.8946   22.4797   -0.9654 N.am      2 UNK        -0.4145 
     35 C          28.2768   21.2795   -1.4163 C.2       1 UNK         0.5006 
     36 O          27.9331   20.8143   -2.5049 O.2       1 UNK        -0.5103 
     37 C          27.8075   27.7058    4.5333 C.2       5 UNK         0.5055 
     38 O          28.2108   27.9177    5.6775 O.2       5 UNK        -0.5220 
     39 N          26.7250   28.3238    4.0298 N.am      6 UNK        -0.4450 
     40 CA         25.9826   29.3821    4.7269 C.3       6 UNK         0.0367 
     41 CB         24.7099   29.7215    3.9351 C.3       6 UNK        -0.1929 
     42 C          26.8083   30.6607    4.9861 C.2       6 UNK         0.5070 
     43 O          26.4370   31.4413    5.8631 O.2       6 UNK        -0.5237 
     44 N          27.9082   30.8500    4.2446 N.am      7 UNK        -0.4739 
     45 CA         28.8687   31.9376    4.4133 C.3       7 UNK         0.0276 
     46 CB         28.6211   33.0061    3.3314 C.3       7 UNK        -0.1927 
     47 C          30.2983   31.3739    4.3747 C.2       7 UNK         0.5013 
     48 O          31.1670   31.9710    3.7362 O.2       7 UNK        -0.5193 
     49 N          30.5210   30.2337    5.0515 N.am      8 UNK        -0.4253 
     50 CA         31.7477   29.4177    5.0316 C.3       8 UNK         0.0242 
     51 CB         31.6034   28.2536    6.0266 C.3       8 UNK        -0.2000 
     52 C          33.0730   30.1526    5.3078 C.2       8 UNK         0.4948 
     53 O          34.1187   29.6759    4.8670 O.2       8 UNK        -0.5275 
     54 N          33.0167   31.2909    6.0144 N.am      9 UNK        -0.4246 
     55 CA         34.1529   32.1878    6.2486 C.3       9 UNK         0.0261 
     56 CB         33.7379   33.2827    7.2446 C.3       9 UNK        -0.1959 
     57 C          34.7139   32.8174    4.9578 C.2       9 UNK         0.5033 
     58 O          35.9102   33.1076    4.9062 O.2       9 UNK        -0.5390 
     59 N          33.8528   33.0037    3.9486 N.am      10 UNK        -0.4215 
     60 CA         34.2173   33.4365    2.5995 C.3       10 UNK         0.0240 
     61 CB         33.3162   34.6101    2.1786 C.3       10 UNK        -0.1982 
     62 C          34.0843   32.2698    1.6097 C.2       10 UNK         0.4970 
     63 O          34.9819   32.0672    0.7917 O.2       10 UNK        -0.4916 
     64 N          32.9730   31.5274    1.7103 N.am      11 UNK        -0.4279 
     65 CA         32.6018   30.3791    0.8722 C.3       11 UNK         0.1003 
     66 C          32.3982   30.7199   -0.6374 C.2       11 UNK         0.5709 
     67 N          32.0303   31.9496   -0.9798 N.am      11 UNK        -0.7358 
     68 O          32.5553   29.8705   -1.5109 O.2       11 UNK        -0.4999 
     69 C69        33.5074   29.1396    1.1346 C.3       12 UNK        -0.0954 
     70 S70        32.5517   27.5867    1.1084 S.3       12 UNK        -0.2268 
     71 C71        33.3982   26.6189    2.3923 C.3       12 UNK         0.0203 
     72 H72        28.1833   22.1212    3.0880 H         1 UNK         0.0888 
     73 H73        26.9509   20.9432    3.5272 H         1 UNK         0.0888 
     74 H74        28.6566   20.5358    3.7282 H         1 UNK         0.0888 
     75 H75        29.7615   21.4133    1.2959 H         1 UNK         0.3017 
     76 H76        28.8819   19.4137   -0.5980 H         1 UNK         0.0873 
     77 H77        31.2619   19.7746   -0.4043 H         1 UNK         0.0745 
     78 H78        30.7681   20.2543   -1.9912 H         1 UNK         0.0745 
     79 H79        33.5870   21.9428    0.3673 H         1 UNK         0.0705 
     80 H80        32.3980   20.9411    1.1557 H         1 UNK         0.0705 
     81 H81        33.5663   24.4540    0.7515 H         1 UNK         0.1334 
     82 H82        31.7708   25.7725    4.4134 H         1 UNK         0.1417 
     83 H83        31.0614   21.7919    2.9913 H         1 UNK         0.1562 
     84 H84        31.0431   23.2105    5.8720 H         1 UNK         0.0748 
     85 H85        29.7986   22.5675    4.8367 H         1 UNK         0.0748 
     86 H86        27.3475   25.0271    4.0790 H         1 UNK         0.0940 
     87 H87        28.7708   24.6269    3.1644 H         1 UNK         0.0940 
     88 H88        29.6696   26.9961    3.7740 H         1 UNK         0.0703 
     89 H89        27.9593   26.2671    1.6498 H         1 UNK         0.3081 
     90 H90        27.8698   29.3537   -0.0384 H         1 UNK         0.0719 
     91 H91        29.7113   27.0171   -0.7957 H         1 UNK         0.0809 
     92 H92        29.0842   28.2431   -1.9014 H         1 UNK         0.0809 
     93 H93        30.2081   28.6927   -0.6333 H         1 UNK         0.0809 
     94 H94        27.2166   26.8509   -1.0727 H         1 UNK         0.2990 
     95 H95        24.4731   25.8121    0.7169 H         1 UNK         0.0690 
     96 H96        24.1167   27.4174   -1.8735 H         1 UNK         0.0788 
     97 H97        23.2557   27.7099   -0.3689 H         1 UNK         0.0788 
     98 H98        22.9981   26.2085   -1.2396 H         1 UNK         0.0788 
     99 H99        25.1775   25.1546   -1.9319 H         1 UNK         0.2993 
    100 H100       26.1818   22.9004   -2.0805 H         1 UNK         0.0949 
    101 H101       28.6608   24.7306   -2.3054 H         1 UNK         0.0767 
    102 H102       28.2061   23.4983   -3.4774 H         1 UNK         0.0767 
    103 H103       27.1868   24.9052   -3.2521 H         1 UNK         0.0767 
    104 H104       28.1780   22.7731   -0.0388 H         1 UNK         0.3013 
    105 H105       26.4350   28.1287    3.0749 H         1 UNK         0.3121 
    106 H106       25.6828   28.9882    5.7003 H         1 UNK         0.0774 
    107 H107       24.1024   30.4544    4.4678 H         1 UNK         0.0815 
    108 H108       24.9457   30.1437    2.9574 H         1 UNK         0.0815 
    109 H109       24.0898   28.8387    3.7788 H         1 UNK         0.0815 
    110 H110       28.1619   30.1552    3.5469 H         1 UNK         0.2987 
    111 H111       28.7479   32.4032    5.3938 H         1 UNK         0.0949 
    112 H112       28.7727   32.6028    2.3293 H         1 UNK         0.0806 
    113 H113       27.6050   33.3967    3.3860 H         1 UNK         0.0806 
    114 H114       29.2992   33.8521    3.4511 H         1 UNK         0.0806 
    115 H115       29.7328   29.8232    5.5355 H         1 UNK         0.3010 
    116 H116       31.8237   29.0019    4.0247 H         1 UNK         0.0829 
    117 H117       32.5024   27.6354    6.0438 H         1 UNK         0.0813 
    118 H118       31.4367   28.6122    7.0429 H         1 UNK         0.0813 
    119 H119       30.7764   27.5973    5.7664 H         1 UNK         0.0813 
    120 H120       32.1155   31.5967    6.3510 H         1 UNK         0.3038 
    121 H121       34.9538   31.5982    6.6999 H         1 UNK         0.0769 
    122 H122       34.5731   33.9514    7.4583 H         1 UNK         0.0811 
    123 H123       33.4169   32.8554    8.1948 H         1 UNK         0.0811 
    124 H124       32.9222   33.8945    6.8569 H         1 UNK         0.0811 
    125 H125       32.8902   32.7025    4.0778 H         1 UNK         0.3204 
    126 H126       35.2541   33.7788    2.5730 H         1 UNK         0.0748 
    127 H127       33.5513   34.9402    1.1657 H         1 UNK         0.0771 
    128 H128       32.2590   34.3413    2.2002 H         1 UNK         0.0771 
    129 H129       33.4543   35.4669    2.8383 H         1 UNK         0.0771 
    130 H130       32.2799   31.7748    2.4145 H         1 UNK         0.2980 
    131 H131       31.5996   30.1335    1.2246 H         1 UNK         0.0545 
    132 H132       31.8891   32.6569   -0.2772 H         1 UNK         0.3459 
    133 H133       31.8958   32.1695   -1.9538 H         1 UNK         0.3459 
    134 H134       34.3279   29.0793    0.4177 H         1 UNK         0.0616 
    135 H135       33.9783   29.2216    2.1152 H         1 UNK         0.0616 
    136 H136       33.3898   27.1730    3.3321 H         1 UNK         0.0634 
    137 H137       34.4454   26.4886    2.1156 H         1 UNK         0.0634 
@<TRIPOS>BOND
     1    1    2 1    
     2    1   72 1    
     3    1   73 1    
     4    1   74 1    
     5    2    3 2    
     6    2    4 am   BACKBONE|DICT|INTERRES
     7    4    5 1    
     8    4   75 1    
     9    5    6 1    
    10    5   35 1    
    11    5   76 1    
    12    6    7 1    
    13    6   77 1    
    14    6   78 1    
    15    7    8 1    
    16    8    9 1    
    17    8   79 1    
    18    8   80 1    
    19    9   10 ar   
    20    9   14 ar   
    21   10   11 ar   
    22   10   81 1    
    23   11   12 ar   
    24   11   71 1    
    25   12   13 ar   
    26   12   82 1    
    27   13   14 ar   
    28   13   15 1    
    29   14   83 1    
    30   15   16 1    
    31   15   84 1    
    32   15   85 1    
    33   16   17 1    
    34   17   18 1    
    35   17   86 1    
    36   17   87 1    
    37   18   19 1    
    38   18   37 1    
    39   18   88 1    
    40   19   20 am   BACKBONE|DICT|INTERRES
    41   19   89 1    
    42   20   21 2    
    43   20   22 1    
    44   22   23 1    
    45   22   24 1    
    46   22   90 1    
    47   23   91 1    
    48   23   92 1    
    49   23   93 1    
    50   24   25 am   BACKBONE|DICT|INTERRES
    51   24   94 1    
    52   25   26 2    
    53   25   27 1    
    54   27   28 1    
    55   27   29 1    
    56   27   95 1    
    57   28   96 1    
    58   28   97 1    
    59   28   98 1    
    60   29   30 am   BACKBONE|DICT|INTERRES
    61   29   99 1    
    62   30   31 2    
    63   30   32 1    
    64   32   33 1    
    65   32   34 1    
    66   32  100 1    
    67   33  101 1    
    68   33  102 1    
    69   33  103 1    
    70   34   35 am   BACKBONE|DICT|INTERRES
    71   34  104 1    
    72   35   36 2    
    73   37   38 2    
    74   37   39 am   BACKBONE|DICT|INTERRES
    75   39   40 1    
    76   39  105 1    
    77   40   41 1    
    78   40   42 1    
    79   40  106 1    
    80   41  107 1    
    81   41  108 1    
    82   41  109 1    
    83   42   43 2    
    84   42   44 am   BACKBONE|DICT|INTERRES
    85   44   45 1    
    86   44  110 1    
    87   45   46 1    
    88   45   47 1    
    89   45  111 1    
    90   46  112 1    
    91   46  113 1    
    92   46  114 1    
    93   47   48 2    
    94   47   49 am   BACKBONE|DICT|INTERRES
    95   49   50 1    
    96   49  115 1    
    97   50   51 1    
    98   50   52 1    
    99   50  116 1    
   100   51  117 1    
   101   51  118 1    
   102   51  119 1    
   103   52   53 2    
   104   52   54 am   BACKBONE|DICT|INTERRES
   105   54   55 1    
   106   54  120 1    
   107   55   56 1    
   108   55   57 1    
   109   55  121 1    
   110   56  122 1    
   111   56  123 1    
   112   56  124 1    
   113   57   58 2    
   114   57   59 am   BACKBONE|DICT|INTERRES
   115   59   60 1    
   116   59  125 1    
   117   60   61 1    
   118   60   62 1    
   119   60  126 1    
   120   61  127 1    
   121   61  128 1    
   122   61  129 1    
   123   62   63 2    
   124   62   64 am   BACKBONE|DICT|INTERRES
   125   64   65 1    
   126   64  130 1    
   127   65   66 1    
   128   65   69 1    
   129   65  131 1    
   130   66   67 am   BACKBONE|DICT|INTERRES
   131   66   68 2    
   132   67  132 1    
   133   67  133 1    
   134   69   70 1    
   135   69  134 1    
   136   69  135 1    
   137   70   71 1    
   138   71  136 1    
   139   71  137 1    
@<TRIPOS>SUBSTRUCTURE
     1 UNK         1 GROUP             0       ****    0 ROOT    
