@<TRIPOS>MOLECULE
3R136
137   139    1
SMALL
USER_CHARGES


@<TRIPOS>ATOM
      1 CA         34.0967   25.5503    1.0725 C.3       0 UNK        -0.1979 
      2 C          33.0644   24.5110    0.6632 C.2       0 UNK         0.4864 
      3 O          33.3240   23.7252   -0.2496 O.2       0 UNK        -0.5359 
      4 N          31.9067   24.5067    1.3406 N.am      1 UNK        -0.4318 
      5 CA         30.7423   23.6460    1.0880 C.3       1 UNK         0.0824 
      6 C6         31.0942   22.1283    1.1878 C.3       12 UNK        -0.0944 
      7 S7         29.7186   21.0612    1.7443 S.3       12 UNK        -0.2672 
      8 C8         29.9473   21.0536    3.5567 C.3       12 UNK         0.0333 
      9 C9         29.7329   22.4444    4.1315 C.ar      12 UNK        -0.0807 
     10 C10        30.7991   23.1657    4.6764 C.ar      12 UNK        -0.0894 
     11 C11        30.6212   24.4940    5.0761 C.ar      12 UNK        -0.0804 
     12 C12        29.3727   25.1039    4.9144 C.ar      12 UNK        -0.0824 
     13 C13        28.3009   24.3879    4.3725 C.ar      12 UNK        -0.0762 
     14 C14        28.4772   23.0462    4.0257 C.ar      12 UNK        -0.0782 
     15 C15        26.9784   25.0750    4.0699 C.3       12 UNK         0.0230 
     16 S16        26.6886   25.0577    2.2728 S.3       12 UNK        -0.2608 
     17 C17        25.4906   26.4097    2.0403 C.3       12 UNK        -0.0989 
     18 CA         26.1743   27.7964    1.9233 C.3       5 UNK         0.0716 
     19 N          27.2709   27.7885    0.9519 N.am      5 UNK        -0.4135 
     20 C          28.2439   28.7070    0.9044 C.2       4 UNK         0.5031 
     21 O          28.2888   29.6859    1.6506 O.2       4 UNK        -0.5229 
     22 CA         29.3930   28.4835   -0.0951 C.3       4 UNK         0.0329 
     23 CB         30.5932   27.8581    0.6342 C.3       4 UNK        -0.2001 
     24 N          29.0260   27.6350   -1.2320 N.am      4 UNK        -0.4303 
     25 C          28.1839   28.0039   -2.2097 C.2       3 UNK         0.5044 
     26 O          27.6926   29.1301   -2.2923 O.2       3 UNK        -0.5152 
     27 CA         27.8148   26.9563   -3.2794 C.3       3 UNK         0.0319 
     28 CB         28.5394   27.2598   -4.6011 C.3       3 UNK        -0.2001 
     29 N          28.0868   25.5671   -2.8989 N.am      3 UNK        -0.4354 
     30 C          27.5216   24.9072   -1.8783 C.2       2 UNK         0.4964 
     31 O          26.6853   25.4059   -1.1252 O.2       2 UNK        -0.5047 
     32 CA         27.9906   23.4575   -1.6379 C.3       2 UNK         0.0288 
     33 CB         28.6557   22.8055   -2.8717 C.3       2 UNK        -0.2113 
     34 N          28.8752   23.3322   -0.4723 N.am      2 UNK        -0.4145 
     35 C          29.9894   24.0320   -0.2084 C.2       1 UNK         0.5006 
     36 O          30.3945   24.9587   -0.9175 O.2       1 UNK        -0.5103 
     37 C          25.1384   28.8889    1.5687 C.2       5 UNK         0.5055 
     38 O          24.9335   29.1557    0.3843 O.2       5 UNK        -0.5220 
     39 N          24.4491   29.5054    2.5400 N.am      6 UNK        -0.4450 
     40 CA         24.5603   29.3234    3.9929 C.3       6 UNK         0.0367 
     41 CB         23.1803   29.5897    4.6186 C.3       6 UNK        -0.1929 
     42 C          25.6237   30.2304    4.6432 C.2       6 UNK         0.5070 
     43 O          25.8393   30.1176    5.8495 O.2       6 UNK        -0.5237 
     44 N          26.2501   31.1210    3.8593 N.am      7 UNK        -0.4739 
     45 CA         27.2357   32.1043    4.3231 C.3       7 UNK         0.0276 
     46 CB         27.5656   33.0738    3.1760 C.3       7 UNK        -0.1927 
     47 C          28.5250   31.4799    4.8832 C.2       7 UNK         0.5013 
     48 O          29.0683   32.0004    5.8580 O.2       7 UNK        -0.5193 
     49 N          28.9855   30.3910    4.2479 N.am      8 UNK        -0.4253 
     50 CA         30.1887   29.6103    4.5640 C.3       8 UNK         0.0242 
     51 CB         30.0699   28.9571    5.9573 C.3       8 UNK        -0.2000 
     52 C          31.4994   30.4048    4.3930 C.2       8 UNK         0.4948 
     53 O          32.5020   30.0698    5.0230 O.2       8 UNK        -0.5275 
     54 N          31.4875   31.4330    3.5309 N.am      9 UNK        -0.4246 
     55 CA         32.6050   32.3589    3.3093 C.3       9 UNK         0.0261 
     56 CB         32.1554   33.4816    2.3603 C.3       9 UNK        -0.1959 
     57 C          33.8841   31.6836    2.7839 C.2       9 UNK         0.5033 
     58 O          34.9844   32.0862    3.1640 O.2       9 UNK        -0.5390 
     59 N          33.7155   30.6542    1.9440 N.am      10 UNK        -0.4215 
     60 CA         34.8047   29.8472    1.3909 C.3       10 UNK         0.0240 
     61 CB         34.3214   29.1732    0.0964 C.3       10 UNK        -0.1982 
     62 C          35.3643   28.8005    2.3741 C.2       10 UNK         0.4970 
     63 O          36.4179   28.2320    2.0851 O.2       10 UNK        -0.4916 
     64 N          34.6703   28.5428    3.4933 N.am      11 UNK        -0.4279 
     65 CA         35.1000   27.5854    4.5269 C.3       11 UNK         0.1003 
     66 C          36.2441   28.1127    5.4424 C.2       11 UNK         0.5709 
     67 N          36.5907   29.3949    5.4105 N.am      11 UNK        -0.7358 
     68 O          36.8377   27.3380    6.1892 O.2       11 UNK        -0.4999 
     69 C69        33.9106   27.0634    5.3768 C.3       12 UNK        -0.0954 
     70 S70        32.5856   26.3015    4.3816 S.3       12 UNK        -0.2268 
     71 C71        31.7861   25.2792    5.6541 C.3       12 UNK         0.0203 
     72 H72        34.8510   25.1016    1.7182 H         1 UNK         0.0888 
     73 H73        34.5965   25.9566    0.1936 H         1 UNK         0.0888 
     74 H74        33.6369   26.3794    1.6076 H         1 UNK         0.0888 
     75 H75        31.7837   25.1735    2.0901 H         1 UNK         0.3017 
     76 H76        30.0521   23.8990    1.8906 H         1 UNK         0.0873 
     77 H77        31.4607   21.7528    0.2304 H         1 UNK         0.0745 
     78 H78        31.9188   21.9814    1.8874 H         1 UNK         0.0745 
     79 H79        29.2321   20.3629    4.0053 H         1 UNK         0.0705 
     80 H80        30.9412   20.6736    3.7985 H         1 UNK         0.0705 
     81 H81        31.7753   22.7071    4.7570 H         1 UNK         0.1334 
     82 H82        29.2479   26.1434    5.1825 H         1 UNK         0.1417 
     83 H83        27.6575   22.4972    3.5814 H         1 UNK         0.1562 
     84 H84        26.9866   26.1036    4.4334 H         1 UNK         0.0748 
     85 H85        26.1629   24.5618    4.5812 H         1 UNK         0.0748 
     86 H86        24.7653   26.3886    2.8551 H         1 UNK         0.0940 
     87 H87        24.9285   26.1873    1.1305 H         1 UNK         0.0940 
     88 H88        26.6277   28.0328    2.8865 H         1 UNK         0.0703 
     89 H89        27.2695   27.0238    0.2878 H         1 UNK         0.3081 
     90 H90        29.6938   29.4588   -0.4834 H         1 UNK         0.0719 
     91 H91        30.3104   26.9440    1.1574 H         1 UNK         0.0809 
     92 H92        31.3925   27.6069   -0.0622 H         1 UNK         0.0809 
     93 H93        31.0024   28.5441    1.3762 H         1 UNK         0.0809 
     94 H94        29.4127   26.6953   -1.2466 H         1 UNK         0.2990 
     95 H95        26.7399   27.0426   -3.4511 H         1 UNK         0.0690 
     96 H96        28.2165   26.5870   -5.3959 H         1 UNK         0.0788 
     97 H97        29.6213   27.1657   -4.4979 H         1 UNK         0.0788 
     98 H98        28.3315   28.2768   -4.9371 H         1 UNK         0.0788 
     99 H99        28.7942   25.0840   -3.4338 H         1 UNK         0.2993 
    100 H100       27.0898   22.8863   -1.4076 H         1 UNK         0.0949 
    101 H101       29.6152   23.2628   -3.1165 H         1 UNK         0.0767 
    102 H102       28.8374   21.7447   -2.6976 H         1 UNK         0.0767 
    103 H103       28.0149   22.8771   -3.7518 H         1 UNK         0.0767 
    104 H104       28.6142   22.6172    0.1949 H         1 UNK         0.3013 
    105 H105       23.7744   30.1996    2.2512 H         1 UNK         0.3121 
    106 H106       24.8244   28.2922    4.2282 H         1 UNK         0.0774 
    107 H107       22.8531   30.6175    4.4564 H         1 UNK         0.0815 
    108 H108       23.1981   29.4211    5.6964 H         1 UNK         0.0815 
    109 H109       22.4212   28.9259    4.2042 H         1 UNK         0.0815 
    110 H110       26.0238   31.1357    2.8751 H         1 UNK         0.2987 
    111 H111       26.7758   32.6763    5.1321 H         1 UNK         0.0949 
    112 H112       27.9850   32.5533    2.3138 H         1 UNK         0.0806 
    113 H113       26.6776   33.6116    2.8436 H         1 UNK         0.0806 
    114 H114       28.2944   33.8216    3.4928 H         1 UNK         0.0806 
    115 H115       28.5037   30.1097    3.3941 H         1 UNK         0.3010 
    116 H116       30.2277   28.8052    3.8289 H         1 UNK         0.0829 
    117 H117       30.8818   28.2507    6.1282 H         1 UNK         0.0813 
    118 H118       30.1168   29.6974    6.7563 H         1 UNK         0.0813 
    119 H119       29.1328   28.4112    6.0630 H         1 UNK         0.0813 
    120 H120       30.6237   31.6357    3.0490 H         1 UNK         0.3038 
    121 H121       32.8502   32.8073    4.2745 H         1 UNK         0.0769 
    122 H122       31.3119   34.0360    2.7724 H         1 UNK         0.0811 
    123 H123       31.8591   33.0941    1.3846 H         1 UNK         0.0811 
    124 H124       32.9611   34.1984    2.1950 H         1 UNK         0.0811 
    125 H125       32.7746   30.3992    1.6839 H         1 UNK         0.3204 
    126 H126       35.6301   30.5139    1.1317 H         1 UNK         0.0748 
    127 H127       33.9773   29.9087   -0.6312 H         1 UNK         0.0771 
    128 H128       35.1266   28.6076   -0.3748 H         1 UNK         0.0771 
    129 H129       33.5049   28.4787    0.2852 H         1 UNK         0.0771 
    130 H130       33.8414   29.0800    3.7162 H         1 UNK         0.2980 
    131 H131       35.5173   26.7189    4.0103 H         1 UNK         0.0545 
    132 H132       36.1063   30.0412    4.8069 H         1 UNK         0.3459 
    133 H133       37.3365   29.7197    6.0052 H         1 UNK         0.3459 
    134 H134       33.4784   27.8665    5.9744 H         1 UNK         0.0616 
    135 H135       34.2668   26.3170    6.0892 H         1 UNK         0.0616 
    136 H136       32.5215   24.5986    6.0860 H         1 UNK         0.0634 
    137 H137       31.4377   25.9151    6.4690 H         1 UNK         0.0634 
@<TRIPOS>BOND
     1    1    2 1    
     2    1   72 1    
     3    1   73 1    
     4    1   74 1    
     5    2    3 2    
     6    2    4 am   BACKBONE|DICT|INTERRES
     7    4    5 1    
     8    4   75 1    
     9    5    6 1    
    10    5   35 1    
    11    5   76 1    
    12    6    7 1    
    13    6   77 1    
    14    6   78 1    
    15    7    8 1    
    16    8    9 1    
    17    8   79 1    
    18    8   80 1    
    19    9   10 ar   
    20    9   14 ar   
    21   10   11 ar   
    22   10   81 1    
    23   11   12 ar   
    24   11   71 1    
    25   12   13 ar   
    26   12   82 1    
    27   13   14 ar   
    28   13   15 1    
    29   14   83 1    
    30   15   16 1    
    31   15   84 1    
    32   15   85 1    
    33   16   17 1    
    34   17   18 1    
    35   17   86 1    
    36   17   87 1    
    37   18   19 1    
    38   18   37 1    
    39   18   88 1    
    40   19   20 am   BACKBONE|DICT|INTERRES
    41   19   89 1    
    42   20   21 2    
    43   20   22 1    
    44   22   23 1    
    45   22   24 1    
    46   22   90 1    
    47   23   91 1    
    48   23   92 1    
    49   23   93 1    
    50   24   25 am   BACKBONE|DICT|INTERRES
    51   24   94 1    
    52   25   26 2    
    53   25   27 1    
    54   27   28 1    
    55   27   29 1    
    56   27   95 1    
    57   28   96 1    
    58   28   97 1    
    59   28   98 1    
    60   29   30 am   BACKBONE|DICT|INTERRES
    61   29   99 1    
    62   30   31 2    
    63   30   32 1    
    64   32   33 1    
    65   32   34 1    
    66   32  100 1    
    67   33  101 1    
    68   33  102 1    
    69   33  103 1    
    70   34   35 am   BACKBONE|DICT|INTERRES
    71   34  104 1    
    72   35   36 2    
    73   37   38 2    
    74   37   39 am   BACKBONE|DICT|INTERRES
    75   39   40 1    
    76   39  105 1    
    77   40   41 1    
    78   40   42 1    
    79   40  106 1    
    80   41  107 1    
    81   41  108 1    
    82   41  109 1    
    83   42   43 2    
    84   42   44 am   BACKBONE|DICT|INTERRES
    85   44   45 1    
    86   44  110 1    
    87   45   46 1    
    88   45   47 1    
    89   45  111 1    
    90   46  112 1    
    91   46  113 1    
    92   46  114 1    
    93   47   48 2    
    94   47   49 am   BACKBONE|DICT|INTERRES
    95   49   50 1    
    96   49  115 1    
    97   50   51 1    
    98   50   52 1    
    99   50  116 1    
   100   51  117 1    
   101   51  118 1    
   102   51  119 1    
   103   52   53 2    
   104   52   54 am   BACKBONE|DICT|INTERRES
   105   54   55 1    
   106   54  120 1    
   107   55   56 1    
   108   55   57 1    
   109   55  121 1    
   110   56  122 1    
   111   56  123 1    
   112   56  124 1    
   113   57   58 2    
   114   57   59 am   BACKBONE|DICT|INTERRES
   115   59   60 1    
   116   59  125 1    
   117   60   61 1    
   118   60   62 1    
   119   60  126 1    
   120   61  127 1    
   121   61  128 1    
   122   61  129 1    
   123   62   63 2    
   124   62   64 am   BACKBONE|DICT|INTERRES
   125   64   65 1    
   126   64  130 1    
   127   65   66 1    
   128   65   69 1    
   129   65  131 1    
   130   66   67 am   BACKBONE|DICT|INTERRES
   131   66   68 2    
   132   67  132 1    
   133   67  133 1    
   134   69   70 1    
   135   69  134 1    
   136   69  135 1    
   137   70   71 1    
   138   71  136 1    
   139   71  137 1    
@<TRIPOS>SUBSTRUCTURE
     1 UNK         1 GROUP             0       ****    0 ROOT    
