@<TRIPOS>MOLECULE
3R136
137   139    1
SMALL
USER_CHARGES


@<TRIPOS>ATOM
      1 CA         26.6405   21.1073    0.9965 C.3       0 UNK        -0.1979 
      2 C          27.2303   21.9597   -0.1160 C.2       0 UNK         0.4864 
      3 O          26.5015   22.3714   -1.0195 O.2       0 UNK        -0.5359 
      4 N          28.5436   22.2153   -0.0654 N.am      1 UNK        -0.4318 
      5 CA         29.2844   22.9825   -1.0743 C.3       1 UNK         0.0824 
      6 C6         30.8188   22.8008   -0.9495 C.3       12 UNK        -0.0944 
      7 S7         31.3229   21.0456   -0.8541 S.3       12 UNK        -0.2672 
      8 C8         32.7146   21.0874    0.3265 C.3       12 UNK         0.0333 
      9 C9         32.3604   21.7646    1.6452 C.ar      12 UNK        -0.0807 
     10 C10        33.0114   22.9443    2.0199 C.ar      12 UNK        -0.0894 
     11 C11        32.6807   23.5897    3.2140 C.ar      12 UNK        -0.0804 
     12 C12        31.6967   23.0434    4.0423 C.ar      12 UNK        -0.0824 
     13 C13        31.0271   21.8730    3.6712 C.ar      12 UNK        -0.0762 
     14 C14        31.3729   21.2297    2.4784 C.ar      12 UNK        -0.0782 
     15 C15        29.9205   21.3083    4.5487 C.3       12 UNK         0.0230 
     16 S16        28.2824   21.9231    4.0385 S.3       12 UNK        -0.2608 
     17 C17        28.3038   23.6360    4.6659 C.3       12 UNK        -0.0989 
     18 CA         28.4618   24.6959    3.5371 C.3       5 UNK         0.0716 
     19 N          27.3779   24.7102    2.5476 N.am      5 UNK        -0.4135 
     20 C          26.0747   24.9161    2.7808 C.2       4 UNK         0.5031 
     21 O          25.5847   25.0676    3.9017 O.2       4 UNK        -0.5229 
     22 CA         25.1726   24.9672    1.5318 C.3       4 UNK         0.0329 
     23 CB         23.6680   25.0026    1.8755 C.3       4 UNK        -0.2001 
     24 N          25.5217   26.0675    0.6255 N.am      4 UNK        -0.4303 
     25 C          25.5330   27.3826    0.8928 C.2       3 UNK         0.5044 
     26 O          25.2408   27.8668    1.9869 O.2       3 UNK        -0.5152 
     27 CA         25.9315   28.3091   -0.2738 C.3       3 UNK         0.0319 
     28 CB         26.0258   29.7906    0.1406 C.3       3 UNK        -0.2001 
     29 N          27.2029   27.8929   -0.8720 N.am      3 UNK        -0.4354 
     30 C          27.3254   26.9842   -1.8488 C.2       2 UNK         0.4964 
     31 O          26.3591   26.4160   -2.3609 O.2       2 UNK        -0.5047 
     32 CA         28.7402   26.6014   -2.3300 C.3       2 UNK         0.0288 
     33 CB         29.8902   27.4366   -1.7247 C.3       2 UNK        -0.2113 
     34 N          29.0032   25.1679   -2.1518 N.am      2 UNK        -0.4145 
     35 C          28.9266   24.4797   -1.0021 C.2       1 UNK         0.5006 
     36 O          28.6292   24.9801    0.0872 O.2       1 UNK        -0.5103 
     37 C          28.7255   26.1168    4.0760 C.2       5 UNK         0.5055 
     38 O          28.8447   26.3094    5.2878 O.2       5 UNK        -0.5220 
     39 N          28.8242   27.0863    3.1590 N.am      6 UNK        -0.4450 
     40 CA         29.2280   28.4617    3.4250 C.3       6 UNK         0.0367 
     41 CB         28.0716   29.2593    4.0556 C.3       6 UNK        -0.1929 
     42 C          29.6661   29.0960    2.1050 C.2       6 UNK         0.5070 
     43 O          29.0960   28.7716    1.0635 O.2       6 UNK        -0.5237 
     44 N          30.6313   30.0163    2.1733 N.am      7 UNK        -0.4739 
     45 CA         31.0950   30.8378    1.0517 C.3       7 UNK         0.0276 
     46 CB         32.5470   30.4552    0.7100 C.3       7 UNK        -0.1927 
     47 C          30.9487   32.3343    1.3850 C.2       7 UNK         0.5013 
     48 O          31.6844   33.1580    0.8383 O.2       7 UNK        -0.5193 
     49 N          30.0189   32.6555    2.2992 N.am      8 UNK        -0.4253 
     50 CA         29.6670   33.9697    2.8553 C.3       8 UNK         0.0242 
     51 CB         29.1551   34.9326    1.7651 C.3       8 UNK        -0.2000 
     52 C          30.7838   34.6096    3.6983 C.2       8 UNK         0.4948 
     53 O          30.5699   34.8809    4.8799 O.2       8 UNK        -0.5275 
     54 N          31.9511   34.8295    3.0844 N.am      9 UNK        -0.4246 
     55 CA         33.1427   35.4051    3.7125 C.3       9 UNK         0.0261 
     56 CB         33.9607   36.1345    2.6332 C.3       9 UNK        -0.1959 
     57 C          34.0157   34.3582    4.4294 C.2       9 UNK         0.5033 
     58 O          34.9282   34.7430    5.1627 O.2       9 UNK        -0.5390 
     59 N          33.7489   33.0682    4.1979 N.am      10 UNK        -0.4215 
     60 CA         34.4953   31.9251    4.7149 C.3       10 UNK         0.0240 
     61 CB         35.7793   31.7286    3.8812 C.3       10 UNK        -0.1982 
     62 C          33.5964   30.6818    4.6692 C.2       10 UNK         0.4970 
     63 O          32.4395   30.7765    4.2465 O.2       10 UNK        -0.4916 
     64 N          34.1480   29.5376    5.0935 N.am      11 UNK        -0.4279 
     65 CA         33.5676   28.1821    5.0308 C.3       11 UNK         0.1003 
     66 C          32.3573   27.9307    5.9853 C.2       11 UNK         0.5709 
     67 N          31.5678   28.9360    6.3392 N.am      11 UNK        -0.7358 
     68 O          32.1781   26.8158    6.4687 O.2       11 UNK        -0.4999 
     69 C69        33.3884   27.7122    3.5482 C.3       12 UNK        -0.0954 
     70 S70        32.2893   26.3018    3.1927 S.3       12 UNK        -0.2268 
     71 C71        33.3625   24.8940    3.5937 C.3       12 UNK         0.0203 
     72 H72        27.4087   20.5236    1.5033 H         1 UNK         0.0888 
     73 H73        26.1432   21.7363    1.7340 H         1 UNK         0.0888 
     74 H74        25.9069   20.4109    0.5912 H         1 UNK         0.0888 
     75 H75        29.0951   21.8726    0.7077 H         1 UNK         0.3017 
     76 H76        28.9783   22.6075   -2.0535 H         1 UNK         0.0873 
     77 H77        31.3244   23.2460   -1.8084 H         1 UNK         0.0745 
     78 H78        31.1861   23.3423   -0.0774 H         1 UNK         0.0745 
     79 H79        33.5593   21.5867   -0.1507 H         1 UNK         0.0705 
     80 H80        33.0380   20.0650    0.5266 H         1 UNK         0.0705 
     81 H81        33.7655   23.3721    1.3731 H         1 UNK         0.1334 
     82 H82        31.4364   23.5495    4.9619 H         1 UNK         0.1417 
     83 H83        30.8597   20.3234    2.1861 H         1 UNK         0.1562 
     84 H84        30.0988   21.5461    5.5986 H         1 UNK         0.0748 
     85 H85        29.9204   20.2192    4.4834 H         1 UNK         0.0748 
     86 H86        29.1110   23.7285    5.3935 H         1 UNK         0.0940 
     87 H87        27.3891   23.8063    5.2347 H         1 UNK         0.0940 
     88 H88        29.3605   24.4351    2.9755 H         1 UNK         0.0703 
     89 H89        27.6969   24.6786    1.5796 H         1 UNK         0.3081 
     90 H90        25.3540   24.0463    0.9776 H         1 UNK         0.0719 
     91 H91        23.3996   25.8972    2.4385 H         1 UNK         0.0809 
     92 H92        23.0549   24.9769    0.9747 H         1 UNK         0.0809 
     93 H93        23.3879   24.1412    2.4830 H         1 UNK         0.0809 
     94 H94        25.7999   25.7933   -0.3097 H         1 UNK         0.2990 
     95 H95        25.1391   28.2356   -1.0217 H         1 UNK         0.0690 
     96 H96        26.3085   30.4213   -0.7023 H         1 UNK         0.0788 
     97 H97        26.7559   29.9459    0.9346 H         1 UNK         0.0788 
     98 H98        25.0655   30.1536    0.5086 H         1 UNK         0.0788 
     99 H99        28.0403   28.2374   -0.4050 H         1 UNK         0.2993 
    100 H100       28.7381   26.7869   -3.4053 H         1 UNK         0.0949 
    101 H101       30.0610   27.1978   -0.6755 H         1 UNK         0.0767 
    102 H102       30.8247   27.2455   -2.2521 H         1 UNK         0.0767 
    103 H103       29.6975   28.5076   -1.8007 H         1 UNK         0.0767 
    104 H104       29.2275   24.6627   -2.9977 H         1 UNK         0.3013 
    105 H105       28.7229   26.8663    2.1749 H         1 UNK         0.3121 
    106 H106       30.0805   28.4494    4.1041 H         1 UNK         0.0774 
    107 H107       28.3636   30.2928    4.2439 H         1 UNK         0.0815 
    108 H108       27.1963   29.2766    3.4052 H         1 UNK         0.0815 
    109 H109       27.7669   28.8336    5.0114 H         1 UNK         0.0815 
    110 H110       31.0869   30.2089    3.0635 H         1 UNK         0.2987 
    111 H111       30.4793   30.6601    0.1674 H         1 UNK         0.0949 
    112 H112       33.2286   30.6830    1.5298 H         1 UNK         0.0806 
    113 H113       32.6320   29.3913    0.4880 H         1 UNK         0.0806 
    114 H114       32.8998   30.9967   -0.1685 H         1 UNK         0.0806 
    115 H115       29.4999   31.8810    2.6875 H         1 UNK         0.3010 
    116 H116       28.8338   33.7853    3.5359 H         1 UNK         0.0829 
    117 H117       28.3015   34.5101    1.2350 H         1 UNK         0.0813 
    118 H118       28.8283   35.8765    2.2034 H         1 UNK         0.0813 
    119 H119       29.9218   35.1686    1.0267 H         1 UNK         0.0813 
    120 H120       32.0365   34.5097    2.1218 H         1 UNK         0.3038 
    121 H121       32.8337   36.1391    4.4600 H         1 UNK         0.0769 
    122 H122       34.8447   36.6072    3.0635 H         1 UNK         0.0811 
    123 H123       33.3753   36.9206    2.1558 H         1 UNK         0.0811 
    124 H124       34.3022   35.4503    1.8552 H         1 UNK         0.0811 
    125 H125       32.9339   32.8219    3.6513 H         1 UNK         0.3204 
    126 H126       34.7564   32.1109    5.7588 H         1 UNK         0.0748 
    127 H127       35.5494   31.5019    2.8391 H         1 UNK         0.0771 
    128 H128       36.4041   32.6219    3.8953 H         1 UNK         0.0771 
    129 H129       36.3905   30.9124    4.2673 H         1 UNK         0.0771 
    130 H130       35.0834   29.5763    5.4717 H         1 UNK         0.2980 
    131 H131       34.3515   27.5456    5.4439 H         1 UNK         0.0545 
    132 H132       31.7017   29.8451    5.9185 H         1 UNK         0.3459 
    133 H133       30.8048   28.7679    6.9749 H         1 UNK         0.3459 
    134 H134       34.3666   27.5081    3.1108 H         1 UNK         0.0616 
    135 H135       32.9815   28.5275    2.9519 H         1 UNK         0.0616 
    136 H136       34.3133   24.9970    3.0685 H         1 UNK         0.0634 
    137 H137       33.5891   24.9019    4.6609 H         1 UNK         0.0634 
@<TRIPOS>BOND
     1    1    2 1    
     2    1   72 1    
     3    1   73 1    
     4    1   74 1    
     5    2    3 2    
     6    2    4 am   BACKBONE|DICT|INTERRES
     7    4    5 1    
     8    4   75 1    
     9    5    6 1    
    10    5   35 1    
    11    5   76 1    
    12    6    7 1    
    13    6   77 1    
    14    6   78 1    
    15    7    8 1    
    16    8    9 1    
    17    8   79 1    
    18    8   80 1    
    19    9   10 ar   
    20    9   14 ar   
    21   10   11 ar   
    22   10   81 1    
    23   11   12 ar   
    24   11   71 1    
    25   12   13 ar   
    26   12   82 1    
    27   13   14 ar   
    28   13   15 1    
    29   14   83 1    
    30   15   16 1    
    31   15   84 1    
    32   15   85 1    
    33   16   17 1    
    34   17   18 1    
    35   17   86 1    
    36   17   87 1    
    37   18   19 1    
    38   18   37 1    
    39   18   88 1    
    40   19   20 am   BACKBONE|DICT|INTERRES
    41   19   89 1    
    42   20   21 2    
    43   20   22 1    
    44   22   23 1    
    45   22   24 1    
    46   22   90 1    
    47   23   91 1    
    48   23   92 1    
    49   23   93 1    
    50   24   25 am   BACKBONE|DICT|INTERRES
    51   24   94 1    
    52   25   26 2    
    53   25   27 1    
    54   27   28 1    
    55   27   29 1    
    56   27   95 1    
    57   28   96 1    
    58   28   97 1    
    59   28   98 1    
    60   29   30 am   BACKBONE|DICT|INTERRES
    61   29   99 1    
    62   30   31 2    
    63   30   32 1    
    64   32   33 1    
    65   32   34 1    
    66   32  100 1    
    67   33  101 1    
    68   33  102 1    
    69   33  103 1    
    70   34   35 am   BACKBONE|DICT|INTERRES
    71   34  104 1    
    72   35   36 2    
    73   37   38 2    
    74   37   39 am   BACKBONE|DICT|INTERRES
    75   39   40 1    
    76   39  105 1    
    77   40   41 1    
    78   40   42 1    
    79   40  106 1    
    80   41  107 1    
    81   41  108 1    
    82   41  109 1    
    83   42   43 2    
    84   42   44 am   BACKBONE|DICT|INTERRES
    85   44   45 1    
    86   44  110 1    
    87   45   46 1    
    88   45   47 1    
    89   45  111 1    
    90   46  112 1    
    91   46  113 1    
    92   46  114 1    
    93   47   48 2    
    94   47   49 am   BACKBONE|DICT|INTERRES
    95   49   50 1    
    96   49  115 1    
    97   50   51 1    
    98   50   52 1    
    99   50  116 1    
   100   51  117 1    
   101   51  118 1    
   102   51  119 1    
   103   52   53 2    
   104   52   54 am   BACKBONE|DICT|INTERRES
   105   54   55 1    
   106   54  120 1    
   107   55   56 1    
   108   55   57 1    
   109   55  121 1    
   110   56  122 1    
   111   56  123 1    
   112   56  124 1    
   113   57   58 2    
   114   57   59 am   BACKBONE|DICT|INTERRES
   115   59   60 1    
   116   59  125 1    
   117   60   61 1    
   118   60   62 1    
   119   60  126 1    
   120   61  127 1    
   121   61  128 1    
   122   61  129 1    
   123   62   63 2    
   124   62   64 am   BACKBONE|DICT|INTERRES
   125   64   65 1    
   126   64  130 1    
   127   65   66 1    
   128   65   69 1    
   129   65  131 1    
   130   66   67 am   BACKBONE|DICT|INTERRES
   131   66   68 2    
   132   67  132 1    
   133   67  133 1    
   134   69   70 1    
   135   69  134 1    
   136   69  135 1    
   137   70   71 1    
   138   71  136 1    
   139   71  137 1    
@<TRIPOS>SUBSTRUCTURE
     1 UNK         1 GROUP             0       ****    0 ROOT    
