@<TRIPOS>MOLECULE
3R136
137   139    1
SMALL
USER_CHARGES


@<TRIPOS>ATOM
      1 CA         35.2958   21.3579   -0.1539 C.3       0 UNK        -0.1979 
      2 C          34.3748   22.5689   -0.1842 C.2       0 UNK         0.4864 
      3 O          34.8513   23.6966   -0.3197 O.2       0 UNK        -0.5359 
      4 N          33.0630   22.3440   -0.0630 N.am      1 UNK        -0.4318 
      5 CA         32.0224   23.3672   -0.0826 C.3       1 UNK         0.0824 
      6 C6         31.8617   24.0407    1.3086 C.3       12 UNK        -0.0944 
      7 S7         30.4988   25.2533    1.3988 S.3       12 UNK        -0.2672 
      8 C8         29.2314   24.2933    2.2819 C.3       12 UNK         0.0333 
      9 C9         29.3979   24.4314    3.7824 C.ar      12 UNK        -0.0807 
     10 C10        30.0791   23.4594    4.5152 C.ar      12 UNK        -0.0894 
     11 C11        30.2510   23.6017    5.8950 C.ar      12 UNK        -0.0804 
     12 C12        29.7064   24.7147    6.5456 C.ar      12 UNK        -0.0824 
     13 C13        29.0016   25.6848    5.8230 C.ar      12 UNK        -0.0762 
     14 C14        28.8650   25.5415    4.4380 C.ar      12 UNK        -0.0782 
     15 C15        28.4213   26.9016    6.5332 C.3       12 UNK         0.0230 
     16 S16        26.7225   27.2969    5.9829 S.3       12 UNK        -0.2608 
     17 C17        26.8474   29.1053    5.8254 C.3       12 UNK        -0.0989 
     18 CA         27.4731   29.5309    4.4720 C.3       5 UNK         0.0716 
     19 N          26.5736   29.2959    3.3370 N.am      5 UNK        -0.4135 
     20 C          26.8059   29.5876    2.0470 C.2       4 UNK         0.5031 
     21 O          27.8073   30.1690    1.6163 O.2       4 UNK        -0.5229 
     22 CA         25.6894   29.1966    1.0624 C.3       4 UNK         0.0329 
     23 CB         24.9492   30.4535    0.5761 C.3       4 UNK        -0.2001 
     24 N          26.1845   28.4547   -0.1014 N.am      4 UNK        -0.4303 
     25 C          26.7904   27.2597   -0.0623 C.2       3 UNK         0.5044 
     26 O          27.0024   26.6304    0.9758 O.2       3 UNK        -0.5152 
     27 CA         27.1908   26.6552   -1.4188 C.3       3 UNK         0.0319 
     28 CB         28.1503   27.5693   -2.2053 C.3       3 UNK        -0.2001 
     29 N          27.8133   25.3439   -1.2277 N.am      3 UNK        -0.4354 
     30 C          27.7897   24.3475   -2.1243 C.2       2 UNK         0.4964 
     31 O          27.2164   24.4298   -3.2122 O.2       2 UNK        -0.5047 
     32 CA         28.5747   23.0723   -1.7696 C.3       2 UNK         0.0288 
     33 CB         28.6588   22.0671   -2.9396 C.3       2 UNK        -0.2113 
     34 N          29.9131   23.4466   -1.3163 N.am      2 UNK        -0.4145 
     35 C          30.7320   22.6889   -0.5773 C.2       1 UNK         0.5006 
     36 O          30.4944   21.5216   -0.2525 O.2       1 UNK        -0.5103 
     37 C          27.9478   30.9911    4.5537 C.2       5 UNK         0.5055 
     38 O          27.1333   31.8826    4.8020 O.2       5 UNK        -0.5220 
     39 N          29.2535   31.1934    4.3378 N.am      6 UNK        -0.4450 
     40 CA         30.0303   32.4401    4.3881 C.3       6 UNK         0.0367 
     41 CB         29.9399   33.1075    5.7739 C.3       6 UNK        -0.1929 
     42 C          29.7070   33.4415    3.2654 C.2       6 UNK         0.5070 
     43 O          30.6085   34.1534    2.8227 O.2       6 UNK        -0.5237 
     44 N          28.4505   33.4691    2.8061 N.am      7 UNK        -0.4739 
     45 CA         27.9732   34.2546    1.6690 C.3       7 UNK         0.0276 
     46 CB         26.4400   34.1699    1.6062 C.3       7 UNK        -0.1927 
     47 C          28.5948   33.8128    0.3336 C.2       7 UNK         0.5013 
     48 O          28.8118   34.6629   -0.5313 O.2       7 UNK        -0.5193 
     49 N          28.8756   32.5098    0.1960 N.am      8 UNK        -0.4253 
     50 CA         29.5278   31.9214   -0.9707 C.3       8 UNK         0.0242 
     51 CB         28.5166   31.0644   -1.7441 C.3       8 UNK        -0.2000 
     52 C          30.7650   31.1041   -0.5747 C.2       8 UNK         0.4948 
     53 O          31.8137   31.2872   -1.1947 O.2       8 UNK        -0.5275 
     54 N          30.6463   30.2276    0.4323 N.am      9 UNK        -0.4246 
     55 CA         31.7206   29.3408    0.8912 C.3       9 UNK         0.0261 
     56 CB         31.9063   28.1804   -0.1090 C.3       9 UNK        -0.1959 
     57 C          31.4052   28.8276    2.3027 C.2       9 UNK         0.5033 
     58 O          30.3348   29.1242    2.8303 O.2       9 UNK        -0.5390 
     59 N          32.3319   28.0771    2.9050 N.am      10 UNK        -0.4215 
     60 CA         32.1655   27.4125    4.1968 C.3       10 UNK         0.0240 
     61 CB         32.1644   28.4407    5.3499 C.3       10 UNK        -0.1982 
     62 C          33.2899   26.3871    4.3800 C.2       10 UNK         0.4970 
     63 O          34.2740   26.4228    3.6360 O.2       10 UNK        -0.4916 
     64 N          33.1465   25.5297    5.3985 N.am      11 UNK        -0.4279 
     65 CA         34.2042   24.6277    5.8868 C.3       11 UNK         0.1003 
     66 C          35.4295   25.3544    6.5205 C.2       11 UNK         0.5709 
     67 N          35.3270   26.6168    6.9213 N.am      11 UNK        -0.7358 
     68 O          36.4965   24.7581    6.6466 O.2       11 UNK        -0.4999 
     69 C69        33.6416   23.5676    6.8722 C.3       12 UNK        -0.0954 
     70 S70        32.6843   22.2593    6.0413 S.3       12 UNK        -0.2268 
     71 C71        30.9969   22.5292    6.6761 C.3       12 UNK         0.0203 
     72 H72        36.0035   21.4458    0.6700 H         1 UNK         0.0888 
     73 H73        34.7420   20.4278   -0.0270 H         1 UNK         0.0888 
     74 H74        35.8605   21.2923   -1.0835 H         1 UNK         0.0888 
     75 H75        32.7023   21.4000    0.0083 H         1 UNK         0.3017 
     76 H76        32.3000   24.1304   -0.8135 H         1 UNK         0.0873 
     77 H77        31.7318   23.2848    2.0840 H         1 UNK         0.0745 
     78 H78        32.7818   24.5674    1.5668 H         1 UNK         0.0745 
     79 H79        29.2686   23.2449    1.9824 H         1 UNK         0.0705 
     80 H80        28.2428   24.6488    1.9947 H         1 UNK         0.0705 
     81 H81        30.4875   22.5937    4.0122 H         1 UNK         0.1334 
     82 H82        29.8255   24.8222    7.6154 H         1 UNK         0.1417 
     83 H83        28.3465   26.2968    3.8615 H         1 UNK         0.1562 
     84 H84        29.0894   27.7439    6.3494 H         1 UNK         0.0748 
     85 H85        28.4060   26.7504    7.6136 H         1 UNK         0.0748 
     86 H86        27.4313   29.4762    6.6711 H         1 UNK         0.0940 
     87 H87        25.8527   29.5402    5.9425 H         1 UNK         0.0940 
     88 H88        28.3459   28.9006    4.3038 H         1 UNK         0.0703 
     89 H89        25.7086   28.8319    3.5698 H         1 UNK         0.3081 
     90 H90        24.9724   28.5536    1.5772 H         1 UNK         0.0719 
     91 H91        25.6089   31.1167    0.0145 H         1 UNK         0.0809 
     92 H92        24.1059   30.1964   -0.0650 H         1 UNK         0.0809 
     93 H93        24.5523   31.0237    1.4172 H         1 UNK         0.0809 
     94 H94        26.0561   28.8987   -0.9981 H         1 UNK         0.2990 
     95 H95        26.2706   26.5272   -1.9930 H         1 UNK         0.0690 
     96 H96        28.5471   27.0715   -3.0902 H         1 UNK         0.0788 
     97 H97        28.9959   27.8891   -1.5957 H         1 UNK         0.0788 
     98 H98        27.6338   28.4608   -2.5586 H         1 UNK         0.0788 
     99 H99        28.2328   25.2069   -0.3162 H         1 UNK         0.2993 
    100 H100       28.0445   22.5967   -0.9415 H         1 UNK         0.0949 
    101 H101       29.1934   22.4886   -3.7918 H         1 UNK         0.0767 
    102 H102       29.1686   21.1497   -2.6458 H         1 UNK         0.0767 
    103 H103       27.6639   21.7819   -3.2839 H         1 UNK         0.0767 
    104 H104       30.1855   24.3988   -1.5217 H         1 UNK         0.3013 
    105 H105       29.7640   30.3919    3.9619 H         1 UNK         0.3121 
    106 H106       31.0678   32.1370    4.2374 H         1 UNK         0.0774 
    107 H107       30.6074   33.9681    5.8333 H         1 UNK         0.0815 
    108 H108       28.9331   33.4655    5.9904 H         1 UNK         0.0815 
    109 H109       30.2297   32.4173    6.5661 H         1 UNK         0.0815 
    110 H110       27.7735   32.8823    3.2850 H         1 UNK         0.2987 
    111 H111       28.2570   35.2958    1.8368 H         1 UNK         0.0949 
    112 H112       26.0498   34.7498    0.7686 H         1 UNK         0.0806 
    113 H113       26.0991   33.1420    1.4803 H         1 UNK         0.0806 
    114 H114       25.9837   34.5649    2.5141 H         1 UNK         0.0806 
    115 H115       28.6256   31.8713    0.9455 H         1 UNK         0.3010 
    116 H116       29.8778   32.7073   -1.6435 H         1 UNK         0.0829 
    117 H117       27.6949   31.6708   -2.1253 H         1 UNK         0.0813 
    118 H118       28.9881   30.5777   -2.5988 H         1 UNK         0.0813 
    119 H119       28.0920   30.2892   -1.1084 H         1 UNK         0.0813 
    120 H120       29.7692   30.1262    0.9398 H         1 UNK         0.3038 
    121 H121       32.6477   29.9140    0.9573 H         1 UNK         0.0769 
    122 H122       32.6618   27.4701    0.2285 H         1 UNK         0.0811 
    123 H123       32.2264   28.5420   -1.0859 H         1 UNK         0.0811 
    124 H124       30.9779   27.6280   -0.2497 H         1 UNK         0.0811 
    125 H125       33.1963   27.8418    2.4316 H         1 UNK         0.3204 
    126 H126       31.2186   26.8734    4.1836 H         1 UNK         0.0748 
    127 H127       32.0584   27.9523    6.3190 H         1 UNK         0.0771 
    128 H128       33.0893   29.0182    5.3713 H         1 UNK         0.0771 
    129 H129       31.3368   29.1440    5.2657 H         1 UNK         0.0771 
    130 H130       32.2929   25.5407    5.9360 H         1 UNK         0.2980 
    131 H131       34.6000   24.0996    5.0168 H         1 UNK         0.0545 
    132 H132       34.4587   27.1171    6.8313 H         1 UNK         0.3459 
    133 H133       36.1312   27.0700    7.3255 H         1 UNK         0.3459 
    134 H134       33.0422   24.0440    7.6497 H         1 UNK         0.0616 
    135 H135       34.4506   23.0538    7.3955 H         1 UNK         0.0616 
    136 H136       31.0352   22.7628    7.7411 H         1 UNK         0.0634 
    137 H137       30.4431   21.5934    6.5896 H         1 UNK         0.0634 
@<TRIPOS>BOND
     1    1    2 1    
     2    1   72 1    
     3    1   73 1    
     4    1   74 1    
     5    2    3 2    
     6    2    4 am   BACKBONE|DICT|INTERRES
     7    4    5 1    
     8    4   75 1    
     9    5    6 1    
    10    5   35 1    
    11    5   76 1    
    12    6    7 1    
    13    6   77 1    
    14    6   78 1    
    15    7    8 1    
    16    8    9 1    
    17    8   79 1    
    18    8   80 1    
    19    9   10 ar   
    20    9   14 ar   
    21   10   11 ar   
    22   10   81 1    
    23   11   12 ar   
    24   11   71 1    
    25   12   13 ar   
    26   12   82 1    
    27   13   14 ar   
    28   13   15 1    
    29   14   83 1    
    30   15   16 1    
    31   15   84 1    
    32   15   85 1    
    33   16   17 1    
    34   17   18 1    
    35   17   86 1    
    36   17   87 1    
    37   18   19 1    
    38   18   37 1    
    39   18   88 1    
    40   19   20 am   BACKBONE|DICT|INTERRES
    41   19   89 1    
    42   20   21 2    
    43   20   22 1    
    44   22   23 1    
    45   22   24 1    
    46   22   90 1    
    47   23   91 1    
    48   23   92 1    
    49   23   93 1    
    50   24   25 am   BACKBONE|DICT|INTERRES
    51   24   94 1    
    52   25   26 2    
    53   25   27 1    
    54   27   28 1    
    55   27   29 1    
    56   27   95 1    
    57   28   96 1    
    58   28   97 1    
    59   28   98 1    
    60   29   30 am   BACKBONE|DICT|INTERRES
    61   29   99 1    
    62   30   31 2    
    63   30   32 1    
    64   32   33 1    
    65   32   34 1    
    66   32  100 1    
    67   33  101 1    
    68   33  102 1    
    69   33  103 1    
    70   34   35 am   BACKBONE|DICT|INTERRES
    71   34  104 1    
    72   35   36 2    
    73   37   38 2    
    74   37   39 am   BACKBONE|DICT|INTERRES
    75   39   40 1    
    76   39  105 1    
    77   40   41 1    
    78   40   42 1    
    79   40  106 1    
    80   41  107 1    
    81   41  108 1    
    82   41  109 1    
    83   42   43 2    
    84   42   44 am   BACKBONE|DICT|INTERRES
    85   44   45 1    
    86   44  110 1    
    87   45   46 1    
    88   45   47 1    
    89   45  111 1    
    90   46  112 1    
    91   46  113 1    
    92   46  114 1    
    93   47   48 2    
    94   47   49 am   BACKBONE|DICT|INTERRES
    95   49   50 1    
    96   49  115 1    
    97   50   51 1    
    98   50   52 1    
    99   50  116 1    
   100   51  117 1    
   101   51  118 1    
   102   51  119 1    
   103   52   53 2    
   104   52   54 am   BACKBONE|DICT|INTERRES
   105   54   55 1    
   106   54  120 1    
   107   55   56 1    
   108   55   57 1    
   109   55  121 1    
   110   56  122 1    
   111   56  123 1    
   112   56  124 1    
   113   57   58 2    
   114   57   59 am   BACKBONE|DICT|INTERRES
   115   59   60 1    
   116   59  125 1    
   117   60   61 1    
   118   60   62 1    
   119   60  126 1    
   120   61  127 1    
   121   61  128 1    
   122   61  129 1    
   123   62   63 2    
   124   62   64 am   BACKBONE|DICT|INTERRES
   125   64   65 1    
   126   64  130 1    
   127   65   66 1    
   128   65   69 1    
   129   65  131 1    
   130   66   67 am   BACKBONE|DICT|INTERRES
   131   66   68 2    
   132   67  132 1    
   133   67  133 1    
   134   69   70 1    
   135   69  134 1    
   136   69  135 1    
   137   70   71 1    
   138   71  136 1    
   139   71  137 1    
@<TRIPOS>SUBSTRUCTURE
     1 UNK         1 GROUP             0       ****    0 ROOT    
