@<TRIPOS>MOLECULE
3R136
137   139    1
SMALL
USER_CHARGES


@<TRIPOS>ATOM
      1 CA         26.0871   25.7866    4.0010 C.3       0 UNK        -0.1979 
      2 C          26.8276   25.0008    2.9304 C.2       0 UNK         0.4864 
      3 O          27.5078   25.6036    2.0997 O.2       0 UNK        -0.5359 
      4 N          26.6956   23.6668    2.9476 N.am      1 UNK        -0.4318 
      5 CA         27.2708   22.7204    1.9786 C.3       1 UNK         0.0824 
      6 C6         28.8247   22.6967    1.9673 C.3       12 UNK        -0.0944 
      7 S7         29.5074   22.1741    3.5761 S.3       12 UNK        -0.2672 
      8 C8         31.1829   21.6441    3.0987 C.3       12 UNK         0.0333 
      9 C9         32.0588   22.8357    2.7440 C.ar      12 UNK        -0.0807 
     10 C10        32.6819   23.5692    3.7578 C.ar      12 UNK        -0.0894 
     11 C11        33.4473   24.7000    3.4560 C.ar      12 UNK        -0.0804 
     12 C12        33.6156   25.0628    2.1155 C.ar      12 UNK        -0.0824 
     13 C13        33.0014   24.3391    1.0911 C.ar      12 UNK        -0.0762 
     14 C14        32.2252   23.2218    1.4108 C.ar      12 UNK        -0.0782 
     15 C15        33.1694   24.7769   -0.3587 C.3       12 UNK         0.0230 
     16 S16        32.5856   26.4817   -0.6502 S.3       12 UNK        -0.2608 
     17 C17        30.8021   26.3282   -0.2987 C.3       12 UNK        -0.0989 
     18 CA         30.1890   27.5934    0.3538 C.3       5 UNK         0.0716 
     19 N          28.7320   27.5695    0.2211 N.am      5 UNK        -0.4135 
     20 C          27.8635   28.5139    0.6054 C.2       4 UNK         0.5031 
     21 O          28.1936   29.5507    1.1815 O.2       4 UNK        -0.5229 
     22 CA         26.3691   28.2223    0.3604 C.3       4 UNK         0.0329 
     23 CB         25.5671   29.4961    0.0156 C.3       4 UNK        -0.2001 
     24 N          26.1386   27.1473   -0.6175 N.am      4 UNK        -0.4303 
     25 C          26.3928   27.1668   -1.9364 C.2       3 UNK         0.5044 
     26 O          26.7919   28.1615   -2.5420 O.2       3 UNK        -0.5152 
     27 CA         26.2288   25.8443   -2.7120 C.3       3 UNK         0.0319 
     28 CB         27.5338   25.4722   -3.4385 C.3       3 UNK        -0.2001 
     29 N          25.8362   24.7115   -1.8698 N.am      3 UNK        -0.4354 
     30 C          24.5911   24.4153   -1.4846 C.2       2 UNK         0.4964 
     31 O          23.6076   25.0943   -1.7786 O.2       2 UNK        -0.5047 
     32 CA         24.4080   23.1577   -0.6160 C.3       2 UNK         0.0288 
     33 CB         24.4530   21.8812   -1.4795 C.3       2 UNK        -0.2113 
     34 N          25.3139   23.0539    0.5409 N.am      2 UNK        -0.4145 
     35 C          26.6484   22.8945    0.5738 C.2       1 UNK         0.5006 
     36 O          27.3633   22.8828   -0.4310 O.2       1 UNK        -0.5103 
     37 C          30.6533   27.7844    1.8142 C.2       5 UNK         0.5055 
     38 O          31.6050   28.5304    2.0500 O.2       5 UNK        -0.5220 
     39 N          29.9503   27.1479    2.7617 N.am      6 UNK        -0.4450 
     40 CA         30.2209   27.2558    4.1977 C.3       6 UNK         0.0367 
     41 CB         30.0178   25.8750    4.8433 C.3       6 UNK        -0.1929 
     42 C          29.3460   28.3116    4.8997 C.2       6 UNK         0.5070 
     43 O          29.5017   28.4966    6.1072 O.2       6 UNK        -0.5237 
     44 N          28.4223   28.9534    4.1697 N.am      7 UNK        -0.4739 
     45 CA         27.4914   29.9501    4.7071 C.3       7 UNK         0.0276 
     46 CB         26.0726   29.6656    4.1882 C.3       7 UNK        -0.1927 
     47 C          27.9152   31.3806    4.3496 C.2       7 UNK         0.5013 
     48 O          27.8094   32.2667    5.1983 O.2       7 UNK        -0.5193 
     49 N          28.3758   31.5895    3.1079 N.am      8 UNK        -0.4253 
     50 CA         28.7870   32.8937    2.5804 C.3       8 UNK         0.0242 
     51 CB         28.9196   32.7961    1.0518 C.3       8 UNK        -0.2000 
     52 C          30.0907   33.4294    3.1971 C.2       8 UNK         0.4948 
     53 O          30.2780   34.6463    3.2422 O.2       8 UNK        -0.5275 
     54 N          30.9621   32.5246    3.6533 N.am      9 UNK        -0.4246 
     55 CA         32.2513   32.7995    4.2771 C.3       9 UNK         0.0261 
     56 CB         33.2750   33.2325    3.2067 C.3       9 UNK        -0.1959 
     57 C          32.7125   31.5266    4.9956 C.2       9 UNK         0.5033 
     58 O          32.0974   30.4687    4.8283 O.2       9 UNK        -0.5390 
     59 N          33.8152   31.6313    5.7485 N.am      10 UNK        -0.4215 
     60 CA         34.5285   30.5024    6.3536 C.3       10 UNK         0.0240 
     61 CB         35.4565   31.0294    7.4643 C.3       10 UNK        -0.1982 
     62 C          35.2879   29.7096    5.2714 C.2       10 UNK         0.4970 
     63 O          36.5084   29.8331    5.1588 O.2       10 UNK        -0.4916 
     64 N          34.5182   28.9637    4.4719 N.am      11 UNK        -0.4279 
     65 CA         34.8949   28.3049    3.2167 C.3       11 UNK         0.1003 
     66 C          35.1453   29.3566    2.1039 C.2       11 UNK         0.5709 
     67 N          34.0911   29.8045    1.4364 N.am      11 UNK        -0.7358 
     68 O          36.2744   29.7632    1.8388 O.2       11 UNK        -0.4999 
     69 C69        36.0484   27.2628    3.3403 C.3       12 UNK        -0.0954 
     70 S70        35.8083   25.8523    4.4866 S.3       12 UNK        -0.2268 
     71 C71        34.0102   25.5527    4.5917 C.3       12 UNK         0.0203 
     72 H72        26.7683   26.4647    4.5123 H         1 UNK         0.0888 
     73 H73        25.2949   26.3794    3.5452 H         1 UNK         0.0888 
     74 H74        25.6372   25.1338    4.7485 H         1 UNK         0.0888 
     75 H75        26.1452   23.2422    3.6813 H         1 UNK         0.3017 
     76 H76        26.9434   21.7307    2.3015 H         1 UNK         0.0873 
     77 H77        29.2351   23.6730    1.7055 H         1 UNK         0.0745 
     78 H78        29.1865   21.9989    1.2101 H         1 UNK         0.0745 
     79 H79        31.6293   21.0972    3.9305 H         1 UNK         0.0705 
     80 H80        31.1273   20.9398    2.2672 H         1 UNK         0.0705 
     81 H81        32.5300   23.2800    4.7889 H         1 UNK         0.1334 
     82 H82        34.2049   25.9230    1.8473 H         1 UNK         0.1417 
     83 H83        31.7380   22.6602    0.6253 H         1 UNK         0.1562 
     84 H84        32.6425   24.1025   -1.0356 H         1 UNK         0.0748 
     85 H85        34.2255   24.7165   -0.6250 H         1 UNK         0.0748 
     86 H86        30.6057   25.4485    0.3169 H         1 UNK         0.0940 
     87 H87        30.3178   26.1311   -1.2564 H         1 UNK         0.0940 
     88 H88        30.5286   28.4672   -0.2063 H         1 UNK         0.0703 
     89 H89        28.3370   26.7210   -0.1544 H         1 UNK         0.3081 
     90 H90        25.9850   27.8446    1.3087 H         1 UNK         0.0719 
     91 H91        24.5128   29.2702   -0.1432 H         1 UNK         0.0809 
     92 H92        25.6224   30.2282    0.8215 H         1 UNK         0.0809 
     93 H93        25.9453   29.9862   -0.8816 H         1 UNK         0.0809 
     94 H94        25.8255   26.2698   -0.2267 H         1 UNK         0.2990 
     95 H95        25.4551   26.0084   -3.4649 H         1 UNK         0.0690 
     96 H96        28.3504   25.2971   -2.7371 H         1 UNK         0.0788 
     97 H97        27.8496   26.2655   -4.1175 H         1 UNK         0.0788 
     98 H98        27.4090   24.5699   -4.0374 H         1 UNK         0.0788 
     99 H99        26.5770   24.0905   -1.5475 H         1 UNK         0.2993 
    100 H100       23.4036   23.2240   -0.1937 H         1 UNK         0.0949 
    101 H101       25.4290   21.7331   -1.9430 H         1 UNK         0.0767 
    102 H102       24.2262   20.9947   -0.8870 H         1 UNK         0.0767 
    103 H103       23.7176   21.9293   -2.2838 H         1 UNK         0.0767 
    104 H104       24.8472   23.0905    1.4366 H         1 UNK         0.3013 
    105 H105       29.1566   26.5737    2.4844 H         1 UNK         0.3121 
    106 H106       31.2614   27.5482    4.3524 H         1 UNK         0.0774 
    107 H107       28.9670   25.5948    4.8920 H         1 UNK         0.0815 
    108 H108       30.4045   25.8609    5.8628 H         1 UNK         0.0815 
    109 H109       30.5361   25.0973    4.2869 H         1 UNK         0.0815 
    110 H110       28.3992   28.7949    3.1703 H         1 UNK         0.2987 
    111 H111       27.4587   29.8873    5.7973 H         1 UNK         0.0949 
    112 H112       26.0297   29.6661    3.1002 H         1 UNK         0.0806 
    113 H113       25.7082   28.7016    4.5402 H         1 UNK         0.0806 
    114 H114       25.3692   30.4209    4.5418 H         1 UNK         0.0806 
    115 H115       28.3908   30.8130    2.4480 H         1 UNK         0.3010 
    116 H116       27.9977   33.6130    2.8094 H         1 UNK         0.0829 
    117 H117       27.9792   32.4929    0.5908 H         1 UNK         0.0813 
    118 H118       29.1983   33.7582    0.6197 H         1 UNK         0.0813 
    119 H119       29.6819   32.0720    0.7602 H         1 UNK         0.0813 
    120 H120       30.7242   31.5392    3.6292 H         1 UNK         0.3038 
    121 H121       32.1273   33.5903    5.0198 H         1 UNK         0.0769 
    122 H122       33.4174   32.4564    2.4539 H         1 UNK         0.0811 
    123 H123       34.2502   33.4432    3.6463 H         1 UNK         0.0811 
    124 H124       32.9577   34.1395    2.6921 H         1 UNK         0.0811 
    125 H125       34.2683   32.5316    5.8161 H         1 UNK         0.3204 
    126 H126       33.8020   29.8302    6.8163 H         1 UNK         0.0748 
    127 H127       36.1932   31.7358    7.0792 H         1 UNK         0.0771 
    128 H128       34.8896   31.5310    8.2489 H         1 UNK         0.0771 
    129 H129       36.0038   30.2112    7.9343 H         1 UNK         0.0771 
    130 H130       33.5171   29.0671    4.6064 H         1 UNK         0.2980 
    131 H131       33.9983   27.7726    2.9106 H         1 UNK         0.0545 
    132 H132       34.2183   30.4796    0.7007 H         1 UNK         0.3459 
    133 H133       33.1623   29.4412    1.6443 H         1 UNK         0.3459 
    134 H134       36.2594   26.8353    2.3589 H         1 UNK         0.0616 
    135 H135       36.9741   27.7596    3.6332 H         1 UNK         0.0616 
    136 H136       33.4526   26.4836    4.6662 H         1 UNK         0.0634 
    137 H137       33.8378   25.0472    5.5430 H         1 UNK         0.0634 
@<TRIPOS>BOND
     1    1    2 1    
     2    1   72 1    
     3    1   73 1    
     4    1   74 1    
     5    2    3 2    
     6    2    4 am   BACKBONE|DICT|INTERRES
     7    4    5 1    
     8    4   75 1    
     9    5    6 1    
    10    5   35 1    
    11    5   76 1    
    12    6    7 1    
    13    6   77 1    
    14    6   78 1    
    15    7    8 1    
    16    8    9 1    
    17    8   79 1    
    18    8   80 1    
    19    9   10 ar   
    20    9   14 ar   
    21   10   11 ar   
    22   10   81 1    
    23   11   12 ar   
    24   11   71 1    
    25   12   13 ar   
    26   12   82 1    
    27   13   14 ar   
    28   13   15 1    
    29   14   83 1    
    30   15   16 1    
    31   15   84 1    
    32   15   85 1    
    33   16   17 1    
    34   17   18 1    
    35   17   86 1    
    36   17   87 1    
    37   18   19 1    
    38   18   37 1    
    39   18   88 1    
    40   19   20 am   BACKBONE|DICT|INTERRES
    41   19   89 1    
    42   20   21 2    
    43   20   22 1    
    44   22   23 1    
    45   22   24 1    
    46   22   90 1    
    47   23   91 1    
    48   23   92 1    
    49   23   93 1    
    50   24   25 am   BACKBONE|DICT|INTERRES
    51   24   94 1    
    52   25   26 2    
    53   25   27 1    
    54   27   28 1    
    55   27   29 1    
    56   27   95 1    
    57   28   96 1    
    58   28   97 1    
    59   28   98 1    
    60   29   30 am   BACKBONE|DICT|INTERRES
    61   29   99 1    
    62   30   31 2    
    63   30   32 1    
    64   32   33 1    
    65   32   34 1    
    66   32  100 1    
    67   33  101 1    
    68   33  102 1    
    69   33  103 1    
    70   34   35 am   BACKBONE|DICT|INTERRES
    71   34  104 1    
    72   35   36 2    
    73   37   38 2    
    74   37   39 am   BACKBONE|DICT|INTERRES
    75   39   40 1    
    76   39  105 1    
    77   40   41 1    
    78   40   42 1    
    79   40  106 1    
    80   41  107 1    
    81   41  108 1    
    82   41  109 1    
    83   42   43 2    
    84   42   44 am   BACKBONE|DICT|INTERRES
    85   44   45 1    
    86   44  110 1    
    87   45   46 1    
    88   45   47 1    
    89   45  111 1    
    90   46  112 1    
    91   46  113 1    
    92   46  114 1    
    93   47   48 2    
    94   47   49 am   BACKBONE|DICT|INTERRES
    95   49   50 1    
    96   49  115 1    
    97   50   51 1    
    98   50   52 1    
    99   50  116 1    
   100   51  117 1    
   101   51  118 1    
   102   51  119 1    
   103   52   53 2    
   104   52   54 am   BACKBONE|DICT|INTERRES
   105   54   55 1    
   106   54  120 1    
   107   55   56 1    
   108   55   57 1    
   109   55  121 1    
   110   56  122 1    
   111   56  123 1    
   112   56  124 1    
   113   57   58 2    
   114   57   59 am   BACKBONE|DICT|INTERRES
   115   59   60 1    
   116   59  125 1    
   117   60   61 1    
   118   60   62 1    
   119   60  126 1    
   120   61  127 1    
   121   61  128 1    
   122   61  129 1    
   123   62   63 2    
   124   62   64 am   BACKBONE|DICT|INTERRES
   125   64   65 1    
   126   64  130 1    
   127   65   66 1    
   128   65   69 1    
   129   65  131 1    
   130   66   67 am   BACKBONE|DICT|INTERRES
   131   66   68 2    
   132   67  132 1    
   133   67  133 1    
   134   69   70 1    
   135   69  134 1    
   136   69  135 1    
   137   70   71 1    
   138   71  136 1    
   139   71  137 1    
@<TRIPOS>SUBSTRUCTURE
     1 UNK         1 GROUP             0       ****    0 ROOT    
