@<TRIPOS>MOLECULE
3R136
137   139    1
SMALL
USER_CHARGES


@<TRIPOS>ATOM
      1 CA         32.3962   23.9844   -4.9906 C.3       0 UNK        -0.1979 
      2 C          31.9277   24.3091   -3.5798 C.2       0 UNK         0.4864 
      3 O          32.7522   24.6099   -2.7159 O.2       0 UNK        -0.5359 
      4 N          30.6136   24.2506   -3.3415 N.am      1 UNK        -0.4318 
      5 CA         29.9766   24.5537   -2.0639 C.3       1 UNK         0.0824 
      6 C6         29.9725   23.3260   -1.1170 C.3       12 UNK        -0.0944 
      7 S7         29.6275   23.7929    0.6091 S.3       12 UNK        -0.2672 
      8 C8         31.1833   23.3266    1.4321 C.3       12 UNK         0.0333 
      9 C9         31.2115   23.8204    2.8710 C.ar      12 UNK        -0.0807 
     10 C10        32.2223   24.6793    3.3075 C.ar      12 UNK        -0.0894 
     11 C11        32.2224   25.1715    4.6152 C.ar      12 UNK        -0.0804 
     12 C12        31.1971   24.7953    5.4907 C.ar      12 UNK        -0.0824 
     13 C13        30.1852   23.9200    5.0758 C.ar      12 UNK        -0.0762 
     14 C14        30.2183   23.4206    3.7679 C.ar      12 UNK        -0.0782 
     15 C15        29.0880   23.5186    6.0655 C.3       12 UNK         0.0230 
     16 S16        27.5145   22.9774    5.3005 S.3       12 UNK        -0.2608 
     17 C17        26.6110   24.5436    5.0552 C.3       12 UNK        -0.0989 
     18 CA         26.9410   25.2557    3.7072 C.3       5 UNK         0.0716 
     19 N          25.7837   25.8860    3.0665 N.am      5 UNK        -0.4135 
     20 C          24.9425   26.7795    3.6129 C.2       4 UNK         0.5031 
     21 O          24.9819   27.1230    4.7949 O.2       4 UNK        -0.5229 
     22 CA         23.8725   27.4210    2.7022 C.3       4 UNK         0.0329 
     23 CB         24.1391   28.9281    2.5431 C.3       4 UNK        -0.2001 
     24 N          23.7835   26.8235    1.3686 N.am      4 UNK        -0.4303 
     25 C          23.3008   25.6058    1.0859 C.2       3 UNK         0.5044 
     26 O          22.7555   24.8773    1.9150 O.2       3 UNK        -0.5152 
     27 CA         23.4949   25.0970   -0.3573 C.3       3 UNK         0.0319 
     28 CB         22.1759   25.1931   -1.1412 C.3       3 UNK        -0.2001 
     29 N          24.5547   25.7812   -1.1142 N.am      3 UNK        -0.4354 
     30 C          25.8524   25.8221   -0.7785 C.2       2 UNK         0.4964 
     31 O          26.3117   25.3226    0.2527 O.2       2 UNK        -0.5047 
     32 CA         26.7658   26.6376   -1.7043 C.3       2 UNK         0.0288 
     33 CB         26.7863   28.1097   -1.2586 C.3       2 UNK        -0.2113 
     34 N          28.1291   26.1142   -1.6685 N.am      2 UNK        -0.4145 
     35 C          28.5562   25.0568   -2.3669 C.2       1 UNK         0.5006 
     36 O          27.8795   24.4764   -3.2216 O.2       1 UNK        -0.5103 
     37 C          28.0769   26.2913    3.8041 C.2       5 UNK         0.5055 
     38 O          28.4033   26.7624    4.8959 O.2       5 UNK        -0.5220 
     39 N          28.6303   26.6627    2.6436 N.am      6 UNK        -0.4450 
     40 CA         29.7520   27.5865    2.5392 C.3       6 UNK         0.0367 
     41 CB         29.2652   29.0417    2.6781 C.3       6 UNK        -0.1929 
     42 C          30.4629   27.3857    1.2022 C.2       6 UNK         0.5070 
     43 O          29.7979   27.3542    0.1665 O.2       6 UNK        -0.5237 
     44 N          31.7962   27.3026    1.2409 N.am      7 UNK        -0.4739 
     45 CA         32.6583   27.3706    0.0565 C.3       7 UNK         0.0276 
     46 CB         33.9039   26.4984    0.2798 C.3       7 UNK        -0.1927 
     47 C          33.0715   28.8199   -0.2541 C.2       7 UNK         0.5013 
     48 O          33.3821   29.1302   -1.4044 O.2       7 UNK        -0.5193 
     49 N          33.0667   29.6752    0.7741 N.am      8 UNK        -0.4253 
     50 CA         33.4042   31.0923    0.7529 C.3       8 UNK         0.0242 
     51 CB         34.9333   31.2702    0.6669 C.3       8 UNK        -0.2000 
     52 C          32.8499   31.7114    2.0416 C.2       8 UNK         0.4948 
     53 O          32.4569   30.9748    2.9514 O.2       8 UNK        -0.5275 
     54 N          32.8718   33.0491    2.1267 N.am      9 UNK        -0.4246 
     55 CA         32.4051   33.8322    3.2818 C.3       9 UNK         0.0261 
     56 CB         32.5513   35.3308    2.9726 C.3       9 UNK        -0.1959 
     57 C          33.0985   33.4891    4.6159 C.2       9 UNK         0.5033 
     58 O          32.4932   33.6675    5.6741 O.2       9 UNK        -0.5390 
     59 N          34.3274   32.9567    4.5420 N.am      10 UNK        -0.4215 
     60 CA         35.1024   32.4208    5.6646 C.3       10 UNK         0.0240 
     61 CB         36.4874   31.9899    5.1543 C.3       10 UNK        -0.1982 
     62 C          34.4206   31.2559    6.4111 C.2       10 UNK         0.4970 
     63 O          34.7400   31.0375    7.5806 O.2       10 UNK        -0.4916 
     64 N          33.4957   30.5454    5.7493 N.am      11 UNK        -0.4279 
     65 CA         32.6419   29.5184    6.3663 C.3       11 UNK         0.1003 
     66 C          31.5331   30.0921    7.2985 C.2       11 UNK         0.5709 
     67 N          31.2591   31.3930    7.3020 N.am      11 UNK        -0.7358 
     68 O          30.9164   29.3389    8.0479 O.2       11 UNK        -0.4999 
     69 C69        32.0295   28.5662    5.3072 C.3       12 UNK        -0.0954 
     70 S70        33.2913   27.7233    4.2941 S.3       12 UNK        -0.2268 
     71 C71        33.3526   26.0815    5.0797 C.3       12 UNK         0.0203 
     72 H72        31.5647   23.7336   -5.6489 H         1 UNK         0.0888 
     73 H73        33.0813   23.1374   -4.9722 H         1 UNK         0.0888 
     74 H74        32.9211   24.8385   -5.4173 H         1 UNK         0.0888 
     75 H75        29.9618   24.0270   -4.0837 H         1 UNK         0.3017 
     76 H76        30.5325   25.3670   -1.5927 H         1 UNK         0.0873 
     77 H77        30.9401   22.8233   -1.1540 H         1 UNK         0.0745 
     78 H78        29.2418   22.5807   -1.4372 H         1 UNK         0.0745 
     79 H79        31.2927   22.2414    1.4171 H         1 UNK         0.0705 
     80 H80        32.0206   23.7376    0.8669 H         1 UNK         0.0705 
     81 H81        33.0116   24.9719    2.6303 H         1 UNK         0.1334 
     82 H82        31.1902   25.1790    6.5018 H         1 UNK         0.1417 
     83 H83        29.4566   22.7357    3.4233 H         1 UNK         0.1562 
     84 H84        28.8833   24.3408    6.7531 H         1 UNK         0.0748 
     85 H85        29.4695   22.6976    6.6735 H         1 UNK         0.0748 
     86 H86        26.7369   25.1956    5.9214 H         1 UNK         0.0940 
     87 H87        25.5550   24.2699    5.0689 H         1 UNK         0.0940 
     88 H88        27.2708   24.4951    2.9969 H         1 UNK         0.0703 
     89 H89        25.7014   25.6945    2.0723 H         1 UNK         0.3081 
     90 H90        22.9077   27.2924    3.1974 H         1 UNK         0.0719 
     91 H91        24.1643   29.4262    3.5134 H         1 UNK         0.0809 
     92 H92        25.0957   29.1195    2.0549 H         1 UNK         0.0809 
     93 H93        23.3577   29.4109    1.9557 H         1 UNK         0.0809 
     94 H94        24.1985   27.3475    0.6127 H         1 UNK         0.2990 
     95 H95        23.7748   24.0438   -0.2873 H         1 UNK         0.0690 
     96 H96        22.2667   24.7426   -2.1298 H         1 UNK         0.0788 
     97 H97        21.8573   26.2284   -1.2700 H         1 UNK         0.0788 
     98 H98        21.3729   24.6676   -0.6219 H         1 UNK         0.0788 
     99 H99        24.2633   26.2434   -1.9643 H         1 UNK         0.2993 
    100 H100       26.3868   26.5805   -2.7273 H         1 UNK         0.0949 
    101 H101       27.1303   28.2151   -0.2283 H         1 UNK         0.0767 
    102 H102       27.4466   28.7042   -1.8904 H         1 UNK         0.0767 
    103 H103       25.7927   28.5553   -1.3201 H         1 UNK         0.0767 
    104 H104       28.7488   26.5276   -0.9703 H         1 UNK         0.3013 
    105 H105       28.3349   26.2333    1.7745 H         1 UNK         0.3121 
    106 H106       30.4549   27.3574    3.3406 H         1 UNK         0.0774 
    107 H107       28.5052   29.2823    1.9338 H         1 UNK         0.0815 
    108 H108       28.8403   29.2290    3.6642 H         1 UNK         0.0815 
    109 H109       30.0872   29.7451    2.5431 H         1 UNK         0.0815 
    110 H110       32.2583   27.3090    2.1413 H         1 UNK         0.2987 
    111 H111       32.1279   26.9861   -0.8172 H         1 UNK         0.0949 
    112 H112       33.6375   25.4464    0.3709 H         1 UNK         0.0806 
    113 H113       34.5896   26.5769   -0.5652 H         1 UNK         0.0806 
    114 H114       34.4527   26.7916    1.1757 H         1 UNK         0.0806 
    115 H115       32.7511   29.3617    1.6841 H         1 UNK         0.3010 
    116 H116       32.9182   31.5651   -0.1029 H         1 UNK         0.0829 
    117 H117       35.2117   32.3243    0.6485 H         1 UNK         0.0813 
    118 H118       35.3362   30.8203   -0.2406 H         1 UNK         0.0813 
    119 H119       35.4393   30.8112    1.5174 H         1 UNK         0.0813 
    120 H120       33.2168   33.5774    1.3376 H         1 UNK         0.3038 
    121 H121       31.3433   33.6122    3.4116 H         1 UNK         0.0769 
    122 H122       31.9737   35.6141    2.0925 H         1 UNK         0.0811 
    123 H123       33.5916   35.6079    2.7972 H         1 UNK         0.0811 
    124 H124       32.1884   35.9381    3.8034 H         1 UNK         0.0811 
    125 H125       34.7358   32.8551    3.6249 H         1 UNK         0.3204 
    126 H126       35.2364   33.2305    6.3848 H         1 UNK         0.0748 
    127 H127       37.1051   31.6135    5.9711 H         1 UNK         0.0771 
    128 H128       36.4136   31.1961    4.4096 H         1 UNK         0.0771 
    129 H129       37.0242   32.8256    4.7048 H         1 UNK         0.0771 
    130 H130       33.2735   30.7770    4.7866 H         1 UNK         0.2980 
    131 H131       33.2807   28.9106    7.0100 H         1 UNK         0.0545 
    132 H132       31.7602   32.0391    6.7029 H         1 UNK         0.3459 
    133 H133       30.5422   31.7394    7.9189 H         1 UNK         0.3459 
    134 H134       31.3816   29.1332    4.6388 H         1 UNK         0.0616 
    135 H135       31.3922   27.8147    5.7771 H         1 UNK         0.0616 
    136 H136       34.3060   25.6141    4.8296 H         1 UNK         0.0634 
    137 H137       33.3462   26.1961    6.1648 H         1 UNK         0.0634 
@<TRIPOS>BOND
     1    1    2 1    
     2    1   72 1    
     3    1   73 1    
     4    1   74 1    
     5    2    3 2    
     6    2    4 am   BACKBONE|DICT|INTERRES
     7    4    5 1    
     8    4   75 1    
     9    5    6 1    
    10    5   35 1    
    11    5   76 1    
    12    6    7 1    
    13    6   77 1    
    14    6   78 1    
    15    7    8 1    
    16    8    9 1    
    17    8   79 1    
    18    8   80 1    
    19    9   10 ar   
    20    9   14 ar   
    21   10   11 ar   
    22   10   81 1    
    23   11   12 ar   
    24   11   71 1    
    25   12   13 ar   
    26   12   82 1    
    27   13   14 ar   
    28   13   15 1    
    29   14   83 1    
    30   15   16 1    
    31   15   84 1    
    32   15   85 1    
    33   16   17 1    
    34   17   18 1    
    35   17   86 1    
    36   17   87 1    
    37   18   19 1    
    38   18   37 1    
    39   18   88 1    
    40   19   20 am   BACKBONE|DICT|INTERRES
    41   19   89 1    
    42   20   21 2    
    43   20   22 1    
    44   22   23 1    
    45   22   24 1    
    46   22   90 1    
    47   23   91 1    
    48   23   92 1    
    49   23   93 1    
    50   24   25 am   BACKBONE|DICT|INTERRES
    51   24   94 1    
    52   25   26 2    
    53   25   27 1    
    54   27   28 1    
    55   27   29 1    
    56   27   95 1    
    57   28   96 1    
    58   28   97 1    
    59   28   98 1    
    60   29   30 am   BACKBONE|DICT|INTERRES
    61   29   99 1    
    62   30   31 2    
    63   30   32 1    
    64   32   33 1    
    65   32   34 1    
    66   32  100 1    
    67   33  101 1    
    68   33  102 1    
    69   33  103 1    
    70   34   35 am   BACKBONE|DICT|INTERRES
    71   34  104 1    
    72   35   36 2    
    73   37   38 2    
    74   37   39 am   BACKBONE|DICT|INTERRES
    75   39   40 1    
    76   39  105 1    
    77   40   41 1    
    78   40   42 1    
    79   40  106 1    
    80   41  107 1    
    81   41  108 1    
    82   41  109 1    
    83   42   43 2    
    84   42   44 am   BACKBONE|DICT|INTERRES
    85   44   45 1    
    86   44  110 1    
    87   45   46 1    
    88   45   47 1    
    89   45  111 1    
    90   46  112 1    
    91   46  113 1    
    92   46  114 1    
    93   47   48 2    
    94   47   49 am   BACKBONE|DICT|INTERRES
    95   49   50 1    
    96   49  115 1    
    97   50   51 1    
    98   50   52 1    
    99   50  116 1    
   100   51  117 1    
   101   51  118 1    
   102   51  119 1    
   103   52   53 2    
   104   52   54 am   BACKBONE|DICT|INTERRES
   105   54   55 1    
   106   54  120 1    
   107   55   56 1    
   108   55   57 1    
   109   55  121 1    
   110   56  122 1    
   111   56  123 1    
   112   56  124 1    
   113   57   58 2    
   114   57   59 am   BACKBONE|DICT|INTERRES
   115   59   60 1    
   116   59  125 1    
   117   60   61 1    
   118   60   62 1    
   119   60  126 1    
   120   61  127 1    
   121   61  128 1    
   122   61  129 1    
   123   62   63 2    
   124   62   64 am   BACKBONE|DICT|INTERRES
   125   64   65 1    
   126   64  130 1    
   127   65   66 1    
   128   65   69 1    
   129   65  131 1    
   130   66   67 am   BACKBONE|DICT|INTERRES
   131   66   68 2    
   132   67  132 1    
   133   67  133 1    
   134   69   70 1    
   135   69  134 1    
   136   69  135 1    
   137   70   71 1    
   138   71  136 1    
   139   71  137 1    
@<TRIPOS>SUBSTRUCTURE
     1 UNK         1 GROUP             0       ****    0 ROOT    
