@<TRIPOS>MOLECULE
3R136
137   139    1
SMALL
USER_CHARGES


@<TRIPOS>ATOM
      1 CA         26.7005   18.9787    2.8507 C.3       0 UNK        -0.1979 
      2 C          27.3232   19.9440    1.8530 C.2       0 UNK         0.4864 
      3 O          26.6079   20.5191    1.0320 O.2       0 UNK        -0.5359 
      4 N          28.6502   20.1253    1.9185 N.am      1 UNK        -0.4318 
      5 CA         29.4189   21.0280    1.0501 C.3       1 UNK         0.0824 
      6 C6         30.9365   20.7121    1.1243 C.3       12 UNK        -0.0944 
      7 S7         31.8283   21.1482   -0.4072 S.3       12 UNK        -0.2672 
      8 C8         33.1653   22.2217    0.2109 C.3       12 UNK         0.0333 
      9 C9         32.6534   23.5814    0.6646 C.ar      12 UNK        -0.0807 
     10 C10        32.5788   23.8915    2.0263 C.ar      12 UNK        -0.0894 
     11 C11        32.1088   25.1396    2.4449 C.ar      12 UNK        -0.0804 
     12 C12        31.7177   26.0823    1.4889 C.ar      12 UNK        -0.0824 
     13 C13        31.7946   25.7883    0.1247 C.ar      12 UNK        -0.0762 
     14 C14        32.2646   24.5358   -0.2814 C.ar      12 UNK        -0.0782 
     15 C15        31.3854   26.8286   -0.9080 C.3       12 UNK         0.0230 
     16 S16        29.5930   26.8084   -1.2187 S.3       12 UNK        -0.2608 
     17 C17        29.4420   28.1653   -2.4418 C.3       12 UNK        -0.0989 
     18 CA         28.6914   29.4315   -1.9428 C.3       5 UNK         0.0716 
     19 N          27.4040   29.0954   -1.3294 N.am      5 UNK        -0.4135 
     20 C          26.5078   29.9307   -0.7828 C.2       4 UNK         0.5031 
     21 O          26.6500   31.1540   -0.7330 O.2       4 UNK        -0.5229 
     22 CA         25.2212   29.3107   -0.1949 C.3       4 UNK         0.0329 
     23 CB         23.9922   29.7552   -1.0055 C.3       4 UNK        -0.2001 
     24 N          25.2280   27.8438   -0.1104 N.am      4 UNK        -0.4303 
     25 C          26.0101   27.1295    0.7098 C.2       3 UNK         0.5044 
     26 O          26.7960   27.6527    1.4997 O.2       3 UNK        -0.5152 
     27 CA         25.9123   25.5939    0.6001 C.3       3 UNK         0.0319 
     28 CB         25.9037   25.1108   -0.8637 C.3       3 UNK        -0.2001 
     29 N          27.0306   24.9483    1.2848 N.am      3 UNK        -0.4354 
     30 C          27.1158   24.7060    2.5962 C.2       2 UNK         0.4964 
     31 O          26.1836   24.8724    3.3858 O.2       2 UNK        -0.5047 
     32 CA         28.4764   24.1802    3.0980 C.3       2 UNK         0.0288 
     33 CB         28.5668   24.1593    4.6362 C.3       2 UNK        -0.2113 
     34 N          28.7916   22.8405    2.5957 N.am      2 UNK        -0.4145 
     35 C          29.1238   22.5184    1.3350 C.2       1 UNK         0.5006 
     36 O          29.1802   23.3343    0.4145 O.2       1 UNK        -0.5103 
     37 C          29.5609   30.3260   -1.0332 C.2       5 UNK         0.5055 
     38 O          30.0706   29.8596   -0.0133 O.2       5 UNK        -0.5220 
     39 N          29.6598   31.6153   -1.3933 N.am      6 UNK        -0.4450 
     40 CA         30.3546   32.6834   -0.6608 C.3       6 UNK         0.0367 
     41 CB         31.8829   32.5036   -0.7851 C.3       6 UNK        -0.1929 
     42 C          29.8816   32.8356    0.8027 C.2       6 UNK         0.5070 
     43 O          30.6981   33.1217    1.6792 O.2       6 UNK        -0.5237 
     44 N          28.5778   32.6072    1.0381 N.am      7 UNK        -0.4739 
     45 CA         27.9115   32.5396    2.3467 C.3       7 UNK         0.0276 
     46 CB         27.8978   33.9212    3.0354 C.3       7 UNK        -0.1927 
     47 C          28.4999   31.4225    3.2323 C.2       7 UNK         0.5013 
     48 O          28.8655   31.6681    4.3836 O.2       7 UNK        -0.5193 
     49 N          28.6113   30.2214    2.6447 N.am      8 UNK        -0.4253 
     50 CA         29.2503   29.0162    3.1857 C.3       8 UNK         0.0242 
     51 CB         28.4738   28.4634    4.4001 C.3       8 UNK        -0.2000 
     52 C          30.7486   29.2210    3.4692 C.2       8 UNK         0.4948 
     53 O          31.2459   28.7266    4.4800 O.2       8 UNK        -0.5275 
     54 N          31.4222   29.9652    2.5765 N.am      9 UNK        -0.4246 
     55 CA         32.8585   30.2831    2.4987 C.3       9 UNK         0.0261 
     56 CB         33.5936   29.1408    1.7723 C.3       9 UNK        -0.1959 
     57 C          33.5680   30.6796    3.8125 C.2       9 UNK         0.5033 
     58 O          34.7924   30.5603    3.8935 O.2       9 UNK        -0.5390 
     59 N          32.8016   31.1289    4.8166 N.am      10 UNK        -0.4215 
     60 CA         33.2077   31.3373    6.2102 C.3       10 UNK         0.0240 
     61 CB         34.1473   32.5566    6.3326 C.3       10 UNK        -0.1982 
     62 C          33.7754   30.0618    6.8775 C.2       10 UNK         0.4970 
     63 O          34.6954   30.1646    7.6918 O.2       10 UNK        -0.4916 
     64 N          33.2201   28.8866    6.5366 N.am      11 UNK        -0.4279 
     65 CA         33.5960   27.5830    7.1162 C.3       11 UNK         0.1003 
     66 C          33.3046   27.4408    8.6403 C.2       11 UNK         0.5709 
     67 N          32.4061   28.2269    9.2228 N.am      11 UNK        -0.7358 
     68 O          33.9083   26.6015    9.3047 O.2       11 UNK        -0.4999 
     69 C69        32.9623   26.3889    6.3515 C.3       12 UNK        -0.0954 
     70 S70        33.4678   26.2560    4.6036 S.3       12 UNK        -0.2268 
     71 C71        31.9824   25.4493    3.9288 C.3       12 UNK         0.0203 
     72 H72        26.1958   18.1692    2.3240 H         1 UNK         0.0888 
     73 H73        27.4453   18.5387    3.5136 H         1 UNK         0.0888 
     74 H74        25.9643   19.4970    3.4645 H         1 UNK         0.0888 
     75 H75        29.1845   19.6121    2.6057 H         1 UNK         0.3017 
     76 H76        29.0815   20.8326    0.0294 H         1 UNK         0.0873 
     77 H77        31.0878   19.6399    1.2604 H         1 UNK         0.0745 
     78 H78        31.4003   21.1834    1.9926 H         1 UNK         0.0745 
     79 H79        33.6949   21.7134    1.0183 H         1 UNK         0.0705 
     80 H80        33.8957   22.3641   -0.5869 H         1 UNK         0.0705 
     81 H81        32.8784   23.1589    2.7631 H         1 UNK         0.1334 
     82 H82        31.3493   27.0468    1.8025 H         1 UNK         0.1417 
     83 H83        32.3182   24.2967   -1.3348 H         1 UNK         0.1562 
     84 H84        31.9155   26.6554   -1.8458 H         1 UNK         0.0748 
     85 H85        31.6786   27.8216   -0.5693 H         1 UNK         0.0748 
     86 H86        28.9070   27.7555   -3.3000 H         1 UNK         0.0940 
     87 H87        30.4276   28.4323   -2.8282 H         1 UNK         0.0940 
     88 H88        28.4497   30.0176   -2.8319 H         1 UNK         0.0703 
     89 H89        27.2140   28.1073   -1.2638 H         1 UNK         0.3081 
     90 H90        25.1183   29.7028    0.8192 H         1 UNK         0.0719 
     91 H91        24.0301   29.3866   -2.0314 H         1 UNK         0.0809 
     92 H92        23.0668   29.3987   -0.5528 H         1 UNK         0.0809 
     93 H93        23.9263   30.8433   -1.0533 H         1 UNK         0.0809 
     94 H94        24.6036   27.3528   -0.7344 H         1 UNK         0.2990 
     95 H95        24.9783   25.2856    1.0739 H         1 UNK         0.0690 
     96 H96        25.0149   25.4483   -1.3972 H         1 UNK         0.0788 
     97 H97        25.9055   24.0215   -0.9162 H         1 UNK         0.0788 
     98 H98        26.7764   25.4670   -1.4126 H         1 UNK         0.0788 
     99 H99        27.8462   24.7268    0.7198 H         1 UNK         0.2993 
    100 H100       29.2364   24.8698    2.7258 H         1 UNK         0.0949 
    101 H101       29.5526   23.8432    4.9756 H         1 UNK         0.0767 
    102 H102       28.3841   25.1506    5.0522 H         1 UNK         0.0767 
    103 H103       27.8318   23.4827    5.0741 H         1 UNK         0.0767 
    104 H104       28.7277   22.0898    3.2667 H         1 UNK         0.3013 
    105 H105       29.1581   31.9147   -2.2185 H         1 UNK         0.3121 
    106 H106       30.0923   33.6203   -1.1545 H         1 UNK         0.0774 
    107 H107       32.4202   33.3161   -0.2944 H         1 UNK         0.0815 
    108 H108       32.2178   31.5691   -0.3360 H         1 UNK         0.0815 
    109 H109       32.1945   32.4987   -1.8295 H         1 UNK         0.0815 
    110 H110       27.9978   32.3349    0.2488 H         1 UNK         0.2987 
    111 H111       26.8746   32.2602    2.1514 H         1 UNK         0.0949 
    112 H112       28.9010   34.2526    3.3056 H         1 UNK         0.0806 
    113 H113       27.4553   34.6811    2.3916 H         1 UNK         0.0806 
    114 H114       27.3097   33.8917    3.9534 H         1 UNK         0.0806 
    115 H115       28.3300   30.1437    1.6767 H         1 UNK         0.3010 
    116 H116       29.2011   28.2667    2.3944 H         1 UNK         0.0829 
    117 H117       27.4270   28.2874    4.1529 H         1 UNK         0.0813 
    118 H118       28.8919   27.5114    4.7272 H         1 UNK         0.0813 
    119 H119       28.5117   29.1432    5.2515 H         1 UNK         0.0813 
    120 H120       30.8839   30.2767    1.7726 H         1 UNK         0.3038 
    121 H121       32.9261   31.1696    1.8681 H         1 UNK         0.0769 
    122 H122       33.1470   28.9402    0.8002 H         1 UNK         0.0811 
    123 H123       33.5705   28.2195    2.3535 H         1 UNK         0.0811 
    124 H124       34.6406   29.3877    1.5931 H         1 UNK         0.0811 
    125 H125       31.8058   31.1680    4.6423 H         1 UNK         0.3204 
    126 H126       32.2929   31.5740    6.7552 H         1 UNK         0.0748 
    127 H127       34.3363   32.8023    7.3783 H         1 UNK         0.0771 
    128 H128       35.1139   32.3724    5.8626 H         1 UNK         0.0771 
    129 H129       33.7116   33.4410    5.8677 H         1 UNK         0.0771 
    130 H130       32.4906   28.8621    5.8251 H         1 UNK         0.2980 
    131 H131       34.6791   27.4980    7.0111 H         1 UNK         0.0545 
    132 H132       32.2288   28.1277   10.2098 H         1 UNK         0.3459 
    133 H133       31.9004   28.9108    8.6837 H         1 UNK         0.3459 
    134 H134       33.2278   25.4425    6.8267 H         1 UNK         0.0616 
    135 H135       31.8741   26.4600    6.4036 H         1 UNK         0.0616 
    136 H136       31.1125   26.0841    4.1007 H         1 UNK         0.0634 
    137 H137       31.8029   24.5276    4.4837 H         1 UNK         0.0634 
@<TRIPOS>BOND
     1    1    2 1    
     2    1   72 1    
     3    1   73 1    
     4    1   74 1    
     5    2    3 2    
     6    2    4 am   BACKBONE|DICT|INTERRES
     7    4    5 1    
     8    4   75 1    
     9    5    6 1    
    10    5   35 1    
    11    5   76 1    
    12    6    7 1    
    13    6   77 1    
    14    6   78 1    
    15    7    8 1    
    16    8    9 1    
    17    8   79 1    
    18    8   80 1    
    19    9   10 ar   
    20    9   14 ar   
    21   10   11 ar   
    22   10   81 1    
    23   11   12 ar   
    24   11   71 1    
    25   12   13 ar   
    26   12   82 1    
    27   13   14 ar   
    28   13   15 1    
    29   14   83 1    
    30   15   16 1    
    31   15   84 1    
    32   15   85 1    
    33   16   17 1    
    34   17   18 1    
    35   17   86 1    
    36   17   87 1    
    37   18   19 1    
    38   18   37 1    
    39   18   88 1    
    40   19   20 am   BACKBONE|DICT|INTERRES
    41   19   89 1    
    42   20   21 2    
    43   20   22 1    
    44   22   23 1    
    45   22   24 1    
    46   22   90 1    
    47   23   91 1    
    48   23   92 1    
    49   23   93 1    
    50   24   25 am   BACKBONE|DICT|INTERRES
    51   24   94 1    
    52   25   26 2    
    53   25   27 1    
    54   27   28 1    
    55   27   29 1    
    56   27   95 1    
    57   28   96 1    
    58   28   97 1    
    59   28   98 1    
    60   29   30 am   BACKBONE|DICT|INTERRES
    61   29   99 1    
    62   30   31 2    
    63   30   32 1    
    64   32   33 1    
    65   32   34 1    
    66   32  100 1    
    67   33  101 1    
    68   33  102 1    
    69   33  103 1    
    70   34   35 am   BACKBONE|DICT|INTERRES
    71   34  104 1    
    72   35   36 2    
    73   37   38 2    
    74   37   39 am   BACKBONE|DICT|INTERRES
    75   39   40 1    
    76   39  105 1    
    77   40   41 1    
    78   40   42 1    
    79   40  106 1    
    80   41  107 1    
    81   41  108 1    
    82   41  109 1    
    83   42   43 2    
    84   42   44 am   BACKBONE|DICT|INTERRES
    85   44   45 1    
    86   44  110 1    
    87   45   46 1    
    88   45   47 1    
    89   45  111 1    
    90   46  112 1    
    91   46  113 1    
    92   46  114 1    
    93   47   48 2    
    94   47   49 am   BACKBONE|DICT|INTERRES
    95   49   50 1    
    96   49  115 1    
    97   50   51 1    
    98   50   52 1    
    99   50  116 1    
   100   51  117 1    
   101   51  118 1    
   102   51  119 1    
   103   52   53 2    
   104   52   54 am   BACKBONE|DICT|INTERRES
   105   54   55 1    
   106   54  120 1    
   107   55   56 1    
   108   55   57 1    
   109   55  121 1    
   110   56  122 1    
   111   56  123 1    
   112   56  124 1    
   113   57   58 2    
   114   57   59 am   BACKBONE|DICT|INTERRES
   115   59   60 1    
   116   59  125 1    
   117   60   61 1    
   118   60   62 1    
   119   60  126 1    
   120   61  127 1    
   121   61  128 1    
   122   61  129 1    
   123   62   63 2    
   124   62   64 am   BACKBONE|DICT|INTERRES
   125   64   65 1    
   126   64  130 1    
   127   65   66 1    
   128   65   69 1    
   129   65  131 1    
   130   66   67 am   BACKBONE|DICT|INTERRES
   131   66   68 2    
   132   67  132 1    
   133   67  133 1    
   134   69   70 1    
   135   69  134 1    
   136   69  135 1    
   137   70   71 1    
   138   71  136 1    
   139   71  137 1    
@<TRIPOS>SUBSTRUCTURE
     1 UNK         1 GROUP             0       ****    0 ROOT    
