@<TRIPOS>MOLECULE
3R136
137   139    1
SMALL
USER_CHARGES


@<TRIPOS>ATOM
      1 CA         33.6355   25.0434   -3.4082 C.3       0 UNK        -0.1979 
      2 C          32.5669   25.8328   -2.6668 C.2       0 UNK         0.4864 
      3 O          32.2290   26.9419   -3.0807 O.2       0 UNK        -0.5359 
      4 N          32.0300   25.2660   -1.5773 N.am      1 UNK        -0.4318 
      5 CA         31.0214   25.8922   -0.7092 C.3       1 UNK         0.0824 
      6 C6         30.9548   25.2124    0.6814 C.3       12 UNK        -0.0944 
      7 S7         32.5678   25.2342    1.5319 S.3       12 UNK        -0.2672 
      8 C8         32.4071   23.8225    2.6675 C.3       12 UNK         0.0333 
      9 C9         31.4031   24.1010    3.7763 C.ar      12 UNK        -0.0807 
     10 C10        31.7652   24.9047    4.8611 C.ar      12 UNK        -0.0894 
     11 C11        30.8526   25.1671    5.8875 C.ar      12 UNK        -0.0804 
     12 C12        29.5767   24.6001    5.8341 C.ar      12 UNK        -0.0824 
     13 C13        29.2032   23.7910    4.7557 C.ar      12 UNK        -0.0762 
     14 C14        30.1197   23.5474    3.7279 C.ar      12 UNK        -0.0782 
     15 C15        27.8126   23.1727    4.7050 C.3       12 UNK         0.0230 
     16 S16        26.6729   24.1346    3.6592 S.3       12 UNK        -0.2608 
     17 C17        26.5431   25.6962    4.5978 C.3       12 UNK        -0.0989 
     18 CA         27.4242   26.8120    3.9711 C.3       5 UNK         0.0716 
     19 N          27.0164   27.1391    2.5966 N.am      5 UNK        -0.4135 
     20 C          25.8741   27.7289    2.2111 C.2       4 UNK         0.5031 
     21 O          25.0514   28.2265    2.9797 O.2       4 UNK        -0.5229 
     22 CA         25.6007   27.7400    0.7001 C.3       4 UNK         0.0329 
     23 CB         26.3531   28.8935    0.0172 C.3       4 UNK        -0.2001 
     24 N          25.9757   26.4642    0.0846 N.am      4 UNK        -0.4303 
     25 C          25.2564   25.3345    0.1943 C.2       3 UNK         0.5044 
     26 O          24.1619   25.2865    0.7586 O.2       3 UNK        -0.5152 
     27 CA         25.8536   24.0358   -0.3957 C.3       3 UNK         0.0319 
     28 CB         24.7729   23.0950   -0.9705 C.3       3 UNK        -0.2001 
     29 N          26.9325   24.2551   -1.3676 N.am      3 UNK        -0.4354 
     30 C          26.8551   24.9009   -2.5418 C.2       2 UNK         0.4964 
     31 O          25.8005   25.3105   -3.0292 O.2       2 UNK        -0.5047 
     32 CA         28.1867   25.1608   -3.2797 C.3       2 UNK         0.0288 
     33 CB         28.1352   26.4526   -4.1235 C.3       2 UNK        -0.2113 
     34 N          29.3831   25.1799   -2.4200 N.am      2 UNK        -0.4145 
     35 C          29.6165   25.9578   -1.3476 C.2       1 UNK         0.5006 
     36 O          28.7664   26.6897   -0.8374 O.2       1 UNK        -0.5103 
     37 C          27.5923   28.0394    4.8989 C.2       5 UNK         0.5055 
     38 O          27.5691   27.8887    6.1217 O.2       5 UNK        -0.5220 
     39 N          27.7949   29.2229    4.3085 N.am      6 UNK        -0.4450 
     40 CA         28.0932   30.4783    4.9877 C.3       6 UNK         0.0367 
     41 CB         26.8576   31.0326    5.7283 C.3       6 UNK        -0.1929 
     42 C          28.6358   31.4584    3.9466 C.2       6 UNK         0.5070 
     43 O          29.8308   31.7532    3.9527 O.2       6 UNK        -0.5237 
     44 N          27.7524   31.9120    3.0456 N.am      7 UNK        -0.4739 
     45 CA         28.0473   32.8501    1.9595 C.3       7 UNK         0.0276 
     46 CB         26.7387   33.2122    1.2358 C.3       7 UNK        -0.1927 
     47 C          29.0899   32.2828    0.9810 C.2       7 UNK         0.5013 
     48 O          28.7613   31.3922    0.1963 O.2       7 UNK        -0.5193 
     49 N          30.3276   32.7881    1.0867 N.am      8 UNK        -0.4253 
     50 CA         31.5251   32.3835    0.3378 C.3       8 UNK         0.0242 
     51 CB         31.3723   32.7169   -1.1624 C.3       8 UNK        -0.2000 
     52 C          31.9615   30.9209    0.5763 C.2       8 UNK         0.4948 
     53 O          32.6893   30.3683   -0.2509 O.2       8 UNK        -0.5275 
     54 N          31.5369   30.3193    1.6964 N.am      9 UNK        -0.4246 
     55 CA         31.9281   28.9684    2.0960 C.3       9 UNK         0.0261 
     56 CB         30.8264   28.3607    2.9745 C.3       9 UNK        -0.1959 
     57 C          33.2724   28.9944    2.8358 C.2       9 UNK         0.5033 
     58 O          33.5650   29.9534    3.5550 O.2       9 UNK        -0.5390 
     59 N          34.0548   27.9213    2.6799 N.am      10 UNK        -0.4215 
     60 CA         35.3788   27.7357    3.2793 C.3       10 UNK         0.0240 
     61 CB         36.1924   26.7807    2.3847 C.3       10 UNK        -0.1982 
     62 C          35.2923   27.2510    4.7406 C.2       10 UNK         0.4970 
     63 O          35.9267   26.2568    5.0990 O.2       10 UNK        -0.4916 
     64 N          34.4875   27.9435    5.5524 N.am      11 UNK        -0.4279 
     65 CA         34.2819   27.6546    6.9771 C.3       11 UNK         0.1003 
     66 C          35.4865   28.0953    7.8520 C.2       11 UNK         0.5709 
     67 N          35.6862   27.4560    8.9968 N.am      11 UNK        -0.7358 
     68 O          36.2189   29.0280    7.5246 O.2       11 UNK        -0.4999 
     69 C69        32.9531   28.2591    7.5068 C.3       12 UNK        -0.0954 
     70 S70        31.4963   27.7746    6.5217 S.3       12 UNK        -0.2268 
     71 C71        31.2544   26.0521    7.0573 C.3       12 UNK         0.0203 
     72 H72        33.3208   24.8574   -4.4347 H         1 UNK         0.0888 
     73 H73        34.5672   25.6079   -3.4342 H         1 UNK         0.0888 
     74 H74        33.8353   24.0823   -2.9349 H         1 UNK         0.0888 
     75 H75        32.3674   24.3645   -1.2700 H         1 UNK         0.3017 
     76 H76        31.3243   26.9302   -0.5579 H         1 UNK         0.0873 
     77 H77        30.2327   25.7162    1.3273 H         1 UNK         0.0745 
     78 H78        30.6146   24.1797    0.5848 H         1 UNK         0.0745 
     79 H79        32.1322   22.9284    2.1059 H         1 UNK         0.0705 
     80 H80        33.3834   23.6159    3.1086 H         1 UNK         0.0705 
     81 H81        32.7554   25.3384    4.9012 H         1 UNK         0.1334 
     82 H82        28.8721   24.7939    6.6312 H         1 UNK         0.1417 
     83 H83        29.8319   22.9242    2.8920 H         1 UNK         0.1562 
     84 H84        27.3949   23.0789    5.7087 H         1 UNK         0.0748 
     85 H85        27.8787   22.1577    4.3104 H         1 UNK         0.0748 
     86 H86        26.8138   25.5035    5.6365 H         1 UNK         0.0940 
     87 H87        25.4964   26.0037    4.6212 H         1 UNK         0.0940 
     88 H88        28.4357   26.4145    3.8778 H         1 UNK         0.0703 
     89 H89        27.6114   26.7687    1.8699 H         1 UNK         0.3081 
     90 H90        24.5305   27.8983    0.5502 H         1 UNK         0.0719 
     91 H91        26.0477   29.8559    0.4290 H         1 UNK         0.0809 
     92 H92        27.4332   28.8154    0.1482 H         1 UNK         0.0809 
     93 H93        26.1503   28.9204   -1.0534 H         1 UNK         0.0809 
     94 H94        26.8719   26.4360   -0.3940 H         1 UNK         0.2990 
     95 H95        26.3164   23.5207    0.4475 H         1 UNK         0.0690 
     96 H96        25.2131   22.1809   -1.3686 H         1 UNK         0.0788 
     97 H97        24.2042   23.5705   -1.7700 H         1 UNK         0.0788 
     98 H98        24.0607   22.7992   -0.1992 H         1 UNK         0.0788 
     99 H99        27.8501   23.9582   -1.0677 H         1 UNK         0.2993 
    100 H100       28.3142   24.3216   -3.9653 H         1 UNK         0.0949 
    101 H101       27.9458   27.3297   -3.5032 H         1 UNK         0.0767 
    102 H102       29.0725   26.6161   -4.6557 H         1 UNK         0.0767 
    103 H103       27.3442   26.4053   -4.8732 H         1 UNK         0.0767 
    104 H104       30.1433   24.5889   -2.7263 H         1 UNK         0.3013 
    105 H105       27.8092   29.2577    3.2989 H         1 UNK         0.3121 
    106 H106       28.8869   30.2994    5.7168 H         1 UNK         0.0774 
    107 H107       25.9827   31.0947    5.0807 H         1 UNK         0.0815 
    108 H108       26.5921   30.4043    6.5784 H         1 UNK         0.0815 
    109 H109       27.0516   32.0323    6.1194 H         1 UNK         0.0815 
    110 H110       26.7957   31.5964    3.1131 H         1 UNK         0.2987 
    111 H111       28.4449   33.7642    2.4060 H         1 UNK         0.0949 
    112 H112       26.0288   33.6889    1.9119 H         1 UNK         0.0806 
    113 H113       26.9265   33.9115    0.4198 H         1 UNK         0.0806 
    114 H114       26.2553   32.3345    0.8055 H         1 UNK         0.0806 
    115 H115       30.4888   33.4775    1.8088 H         1 UNK         0.3010 
    116 H116       32.3397   32.9968    0.7259 H         1 UNK         0.0829 
    117 H117       30.6234   32.0861   -1.6423 H         1 UNK         0.0813 
    118 H118       31.0815   33.7567   -1.3113 H         1 UNK         0.0813 
    119 H119       32.3117   32.5665   -1.6960 H         1 UNK         0.0813 
    120 H120       31.0058   30.8589    2.3708 H         1 UNK         0.3038 
    121 H121       32.0324   28.3482    1.2040 H         1 UNK         0.0769 
    122 H122       29.8874   28.2884    2.4271 H         1 UNK         0.0811 
    123 H123       30.6562   28.9582    3.8703 H         1 UNK         0.0811 
    124 H124       31.0902   27.3542    3.3013 H         1 UNK         0.0811 
    125 H125       33.7019   27.1428    2.1360 H         1 UNK         0.3204 
    126 H126       35.8964   28.6973    3.2939 H         1 UNK         0.0748 
    127 H127       35.7397   25.7892    2.3366 H         1 UNK         0.0771 
    128 H128       36.2720   27.1622    1.3665 H         1 UNK         0.0771 
    129 H129       37.2086   26.6590    2.7623 H         1 UNK         0.0771 
    130 H130       34.0207   28.7631    5.1809 H         1 UNK         0.2980 
    131 H131       34.2134   26.5697    7.0704 H         1 UNK         0.0545 
    132 H132       36.4553   27.7363    9.5852 H         1 UNK         0.3459 
    133 H133       35.0882   26.6969    9.2836 H         1 UNK         0.3459 
    134 H134       33.0063   29.3493    7.5029 H         1 UNK         0.0616 
    135 H135       32.7800   27.9658    8.5439 H         1 UNK         0.0616 
    136 H136       30.4973   26.0342    7.8426 H         1 UNK         0.0634 
    137 H137       32.1647   25.6514    7.5026 H         1 UNK         0.0634 
@<TRIPOS>BOND
     1    1    2 1    
     2    1   72 1    
     3    1   73 1    
     4    1   74 1    
     5    2    3 2    
     6    2    4 am   BACKBONE|DICT|INTERRES
     7    4    5 1    
     8    4   75 1    
     9    5    6 1    
    10    5   35 1    
    11    5   76 1    
    12    6    7 1    
    13    6   77 1    
    14    6   78 1    
    15    7    8 1    
    16    8    9 1    
    17    8   79 1    
    18    8   80 1    
    19    9   10 ar   
    20    9   14 ar   
    21   10   11 ar   
    22   10   81 1    
    23   11   12 ar   
    24   11   71 1    
    25   12   13 ar   
    26   12   82 1    
    27   13   14 ar   
    28   13   15 1    
    29   14   83 1    
    30   15   16 1    
    31   15   84 1    
    32   15   85 1    
    33   16   17 1    
    34   17   18 1    
    35   17   86 1    
    36   17   87 1    
    37   18   19 1    
    38   18   37 1    
    39   18   88 1    
    40   19   20 am   BACKBONE|DICT|INTERRES
    41   19   89 1    
    42   20   21 2    
    43   20   22 1    
    44   22   23 1    
    45   22   24 1    
    46   22   90 1    
    47   23   91 1    
    48   23   92 1    
    49   23   93 1    
    50   24   25 am   BACKBONE|DICT|INTERRES
    51   24   94 1    
    52   25   26 2    
    53   25   27 1    
    54   27   28 1    
    55   27   29 1    
    56   27   95 1    
    57   28   96 1    
    58   28   97 1    
    59   28   98 1    
    60   29   30 am   BACKBONE|DICT|INTERRES
    61   29   99 1    
    62   30   31 2    
    63   30   32 1    
    64   32   33 1    
    65   32   34 1    
    66   32  100 1    
    67   33  101 1    
    68   33  102 1    
    69   33  103 1    
    70   34   35 am   BACKBONE|DICT|INTERRES
    71   34  104 1    
    72   35   36 2    
    73   37   38 2    
    74   37   39 am   BACKBONE|DICT|INTERRES
    75   39   40 1    
    76   39  105 1    
    77   40   41 1    
    78   40   42 1    
    79   40  106 1    
    80   41  107 1    
    81   41  108 1    
    82   41  109 1    
    83   42   43 2    
    84   42   44 am   BACKBONE|DICT|INTERRES
    85   44   45 1    
    86   44  110 1    
    87   45   46 1    
    88   45   47 1    
    89   45  111 1    
    90   46  112 1    
    91   46  113 1    
    92   46  114 1    
    93   47   48 2    
    94   47   49 am   BACKBONE|DICT|INTERRES
    95   49   50 1    
    96   49  115 1    
    97   50   51 1    
    98   50   52 1    
    99   50  116 1    
   100   51  117 1    
   101   51  118 1    
   102   51  119 1    
   103   52   53 2    
   104   52   54 am   BACKBONE|DICT|INTERRES
   105   54   55 1    
   106   54  120 1    
   107   55   56 1    
   108   55   57 1    
   109   55  121 1    
   110   56  122 1    
   111   56  123 1    
   112   56  124 1    
   113   57   58 2    
   114   57   59 am   BACKBONE|DICT|INTERRES
   115   59   60 1    
   116   59  125 1    
   117   60   61 1    
   118   60   62 1    
   119   60  126 1    
   120   61  127 1    
   121   61  128 1    
   122   61  129 1    
   123   62   63 2    
   124   62   64 am   BACKBONE|DICT|INTERRES
   125   64   65 1    
   126   64  130 1    
   127   65   66 1    
   128   65   69 1    
   129   65  131 1    
   130   66   67 am   BACKBONE|DICT|INTERRES
   131   66   68 2    
   132   67  132 1    
   133   67  133 1    
   134   69   70 1    
   135   69  134 1    
   136   69  135 1    
   137   70   71 1    
   138   71  136 1    
   139   71  137 1    
@<TRIPOS>SUBSTRUCTURE
     1 UNK         1 GROUP             0       ****    0 ROOT    
