@<TRIPOS>MOLECULE
3R136
137   139    1
SMALL
USER_CHARGES


@<TRIPOS>ATOM
      1 CA         26.6650   19.4056    0.3220 C.3       0 UNK        -0.1979 
      2 C          27.5436   20.2010    1.2765 C.2       0 UNK         0.4864 
      3 O          27.4041   20.0560    2.4915 O.2       0 UNK        -0.5359 
      4 N          28.4394   21.0360    0.7284 N.am      1 UNK        -0.4318 
      5 CA         29.3953   21.8954    1.4466 C.3       1 UNK         0.0824 
      6 C6         30.5096   21.1004    2.1841 C.3       12 UNK        -0.0944 
      7 S7         31.5119   20.1247    1.0069 S.3       12 UNK        -0.2672 
      8 C8         33.1845   20.8398    1.1976 C.3       12 UNK         0.0333 
      9 C9         33.2645   22.3558    1.0164 C.ar      12 UNK        -0.0807 
     10 C10        34.1437   23.0910    1.8151 C.ar      12 UNK        -0.0894 
     11 C11        34.2361   24.4794    1.6875 C.ar      12 UNK        -0.0804 
     12 C12        33.4309   25.1387    0.7535 C.ar      12 UNK        -0.0824 
     13 C13        32.5410   24.4204   -0.0587 C.ar      12 UNK        -0.0762 
     14 C14        32.4928   23.0276    0.0618 C.ar      12 UNK        -0.0782 
     15 C15        31.6272   25.0839   -1.0942 C.3       12 UNK         0.0230 
     16 S16        31.4460   26.8969   -0.9694 S.3       12 UNK        -0.2608 
     17 C17        30.5430   27.0866    0.6040 C.3       12 UNK        -0.0989 
     18 CA         29.8172   28.4526    0.6542 C.3       5 UNK         0.0716 
     19 N          28.6696   28.5148   -0.2563 N.am      5 UNK        -0.4135 
     20 C          28.0937   29.6586   -0.6543 C.2       4 UNK         0.5031 
     21 O          28.4802   30.7732   -0.3053 O.2       4 UNK        -0.5229 
     22 CA         26.8471   29.5493   -1.5500 C.3       4 UNK         0.0329 
     23 CB         27.2547   29.4352   -3.0271 C.3       4 UNK        -0.2001 
     24 N          25.9661   28.4334   -1.1960 N.am      4 UNK        -0.4303 
     25 C          25.3862   28.2620    0.0000 C.2       3 UNK         0.5044 
     26 O          25.5144   29.0498    0.9375 O.2       3 UNK        -0.5152 
     27 CA         24.5727   26.9729    0.2213 C.3       3 UNK         0.0319 
     28 CB         24.2740   26.1827   -1.0738 C.3       3 UNK        -0.2001 
     29 N          25.2086   26.0986    1.2161 N.am      3 UNK        -0.4354 
     30 C          26.4593   25.6140    1.1798 C.2       2 UNK         0.4964 
     31 O          27.2701   25.8798    0.2890 O.2       2 UNK        -0.5047 
     32 CA         26.8950   24.6820    2.3207 C.3       2 UNK         0.0288 
     33 CB         25.7327   24.1004    3.1548 C.3       2 UNK        -0.2113 
     34 N          27.6833   23.6043    1.7349 N.am      2 UNK        -0.4145 
     35 C          28.6821   22.9423    2.3301 C.2       1 UNK         0.5006 
     36 O          29.0347   23.1332    3.4960 O.2       1 UNK        -0.5103 
     37 C          29.4295   28.8358    2.0948 C.2       5 UNK         0.5055 
     38 O          30.2470   29.4444    2.7854 O.2       5 UNK        -0.5220 
     39 N          28.1936   28.5240    2.5142 N.am      6 UNK        -0.4450 
     40 CA         27.6457   28.9483    3.8051 C.3       6 UNK         0.0367 
     41 CB         26.4045   28.1167    4.1673 C.3       6 UNK        -0.1929 
     42 C          27.3274   30.4509    3.8159 C.2       6 UNK         0.5070 
     43 O          27.6555   31.1267    4.7897 O.2       6 UNK        -0.5237 
     44 N          26.7411   30.9547    2.7198 N.am      7 UNK        -0.4739 
     45 CA         26.4453   32.3750    2.5045 C.3       7 UNK         0.0276 
     46 CB         25.6145   32.5389    1.2221 C.3       7 UNK        -0.1927 
     47 C          27.7095   33.2513    2.4534 C.2       7 UNK         0.5013 
     48 O          27.7186   34.3347    3.0384 O.2       7 UNK        -0.5193 
     49 N          28.7616   32.7527    1.7888 N.am      8 UNK        -0.4253 
     50 CA         30.0896   33.3721    1.7414 C.3       8 UNK         0.0242 
     51 CB         30.8820   32.7640    0.5718 C.3       8 UNK        -0.2000 
     52 C          30.8906   33.2254    3.0498 C.2       8 UNK         0.4948 
     53 O          31.8900   33.9270    3.2110 O.2       8 UNK        -0.5275 
     54 N          30.4634   32.3111    3.9353 N.am      9 UNK        -0.4246 
     55 CA         31.1198   31.8887    5.1783 C.3       9 UNK         0.0261 
     56 CB         31.1240   33.0294    6.2179 C.3       9 UNK        -0.1959 
     57 C          32.5167   31.2844    4.9300 C.2       9 UNK         0.5033 
     58 O          33.4562   31.5608    5.6803 O.2       9 UNK        -0.5390 
     59 N          32.6301   30.4723    3.8709 N.am      10 UNK        -0.4215 
     60 CA         33.8530   29.7701    3.4886 C.3       10 UNK         0.0240 
     61 CB         33.7265   29.2831    2.0359 C.3       10 UNK        -0.1982 
     62 C          34.1137   28.5934    4.4399 C.2       10 UNK         0.4970 
     63 O          33.1685   27.8835    4.7888 O.2       10 UNK        -0.4916 
     64 N          35.3863   28.4245    4.8245 N.am      11 UNK        -0.4279 
     65 CA         35.9274   27.3932    5.7319 C.3       11 UNK         0.1003 
     66 C          35.2295   27.2324    7.1199 C.2       11 UNK         0.5709 
     67 N          34.5183   28.2379    7.6166 N.am      11 UNK        -0.7358 
     68 O          35.3731   26.2075    7.7830 O.2       11 UNK        -0.4999 
     69 C69        36.2787   26.0556    5.0137 C.3       12 UNK        -0.0954 
     70 S70        34.8727   25.1224    4.3162 S.3       12 UNK        -0.2268 
     71 C71        35.2318   25.2577    2.5367 C.3       12 UNK         0.0203 
     72 H72        25.6149   19.6379    0.4973 H         1 UNK         0.0888 
     73 H73        26.8911   19.6247   -0.7213 H         1 UNK         0.0888 
     74 H74        26.8094   18.3375    0.4823 H         1 UNK         0.0888 
     75 H75        28.4975   21.0846   -0.2793 H         1 UNK         0.3017 
     76 H76        29.8796   22.4925    0.6756 H         1 UNK         0.0873 
     77 H77        30.0798   20.4252    2.9255 H         1 UNK         0.0745 
     78 H78        31.1660   21.7745    2.7371 H         1 UNK         0.0745 
     79 H79        33.8492   20.3679    0.4732 H         1 UNK         0.0705 
     80 H80        33.5563   20.5592    2.1845 H         1 UNK         0.0705 
     81 H81        34.7637   22.5837    2.5421 H         1 UNK         0.1334 
     82 H82        33.5137   26.2116    0.6585 H         1 UNK         0.1417 
     83 H83        31.8366   22.4617   -0.5849 H         1 UNK         0.1562 
     84 H84        30.6325   24.6380   -1.0426 H         1 UNK         0.0748 
     85 H85        32.0153   24.8530   -2.0871 H         1 UNK         0.0748 
     86 H86        31.2641   26.9932    1.4177 H         1 UNK         0.0940 
     87 H87        29.8393   26.2627    0.7318 H         1 UNK         0.0940 
     88 H88        30.5309   29.2143    0.3305 H         1 UNK         0.0703 
     89 H89        28.2661   27.6290   -0.5384 H         1 UNK         0.3081 
     90 H90        26.2731   30.4696   -1.4258 H         1 UNK         0.0719 
     91 H91        27.8948   30.2690   -3.3197 H         1 UNK         0.0809 
     92 H92        27.8068   28.5156   -3.2255 H         1 UNK         0.0809 
     93 H93        26.3837   29.4533   -3.6825 H         1 UNK         0.0809 
     94 H94        25.8276   27.7205   -1.8975 H         1 UNK         0.2990 
     95 H95        23.6177   27.2876    0.6447 H         1 UNK         0.0690 
     96 H96        23.6210   25.3346   -0.8673 H         1 UNK         0.0788 
     97 H97        25.1780   25.7897   -1.5406 H         1 UNK         0.0788 
     98 H98        23.7601   26.8050   -1.8080 H         1 UNK         0.0788 
     99 H99        24.6271   25.8410    2.0013 H         1 UNK         0.2993 
    100 H100       27.5412   25.2706    2.9749 H         1 UNK         0.0949 
    101 H101       25.0283   23.5438    2.5351 H         1 UNK         0.0767 
    102 H102       26.1038   23.4181    3.9202 H         1 UNK         0.0767 
    103 H103       25.1806   24.8834    3.6758 H         1 UNK         0.0767 
    104 H104       27.4950   23.4222    0.7583 H         1 UNK         0.3013 
    105 H105       27.5531   28.0992    1.8591 H         1 UNK         0.3121 
    106 H106       28.4016   28.7672    4.5729 H         1 UNK         0.0774 
    107 H107       26.6524   27.0627    4.2818 H         1 UNK         0.0815 
    108 H108       25.9823   28.4478    5.1172 H         1 UNK         0.0815 
    109 H109       25.6173   28.2025    3.4188 H         1 UNK         0.0815 
    110 H110       26.4462   30.3105    1.9893 H         1 UNK         0.2987 
    111 H111       25.8422   32.7171    3.3483 H         1 UNK         0.0949 
    112 H112       24.6911   31.9613    1.2708 H         1 UNK         0.0806 
    113 H113       25.3378   33.5826    1.0675 H         1 UNK         0.0806 
    114 H114       26.1656   32.2134    0.3396 H         1 UNK         0.0806 
    115 H115       28.6402   31.8956    1.2546 H         1 UNK         0.3010 
    116 H116       29.9642   34.4404    1.5526 H         1 UNK         0.0829 
    117 H117       30.3630   32.9063   -0.3763 H         1 UNK         0.0813 
    118 H118       31.8634   33.2307    0.4770 H         1 UNK         0.0813 
    119 H119       31.0415   31.6937    0.7089 H         1 UNK         0.0813 
    120 H120       29.6280   31.7914    3.6993 H         1 UNK         0.3038 
    121 H121       30.5087   31.0791    5.5805 H         1 UNK         0.0769 
    122 H122       31.4950   32.6776    7.1813 H         1 UNK         0.0811 
    123 H123       30.1191   33.4191    6.3807 H         1 UNK         0.0811 
    124 H124       31.7607   33.8587    5.9084 H         1 UNK         0.0811 
    125 H125       31.7771   30.2016    3.3820 H         1 UNK         0.3204 
    126 H126       34.6851   30.4754    3.5455 H         1 UNK         0.0748 
    127 H127       34.6447   28.7971    1.7042 H         1 UNK         0.0771 
    128 H128       33.5318   30.1114    1.3542 H         1 UNK         0.0771 
    129 H129       32.9172   28.5623    1.9248 H         1 UNK         0.0771 
    130 H130       36.0703   29.0868    4.4887 H         1 UNK         0.2980 
    131 H131       36.8936   27.8089    6.0198 H         1 UNK         0.0545 
    132 H132       34.0838   28.1349    8.5197 H         1 UNK         0.3459 
    133 H133       34.3901   29.0856    7.0863 H         1 UNK         0.3459 
    134 H134       36.9948   26.2625    4.2173 H         1 UNK         0.0616 
    135 H135       36.8088   25.3902    5.6971 H         1 UNK         0.0616 
    136 H136       35.2394   26.3127    2.2589 H         1 UNK         0.0634 
    137 H137       36.2346   24.8752    2.3412 H         1 UNK         0.0634 
@<TRIPOS>BOND
     1    1    2 1    
     2    1   72 1    
     3    1   73 1    
     4    1   74 1    
     5    2    3 2    
     6    2    4 am   BACKBONE|DICT|INTERRES
     7    4    5 1    
     8    4   75 1    
     9    5    6 1    
    10    5   35 1    
    11    5   76 1    
    12    6    7 1    
    13    6   77 1    
    14    6   78 1    
    15    7    8 1    
    16    8    9 1    
    17    8   79 1    
    18    8   80 1    
    19    9   10 ar   
    20    9   14 ar   
    21   10   11 ar   
    22   10   81 1    
    23   11   12 ar   
    24   11   71 1    
    25   12   13 ar   
    26   12   82 1    
    27   13   14 ar   
    28   13   15 1    
    29   14   83 1    
    30   15   16 1    
    31   15   84 1    
    32   15   85 1    
    33   16   17 1    
    34   17   18 1    
    35   17   86 1    
    36   17   87 1    
    37   18   19 1    
    38   18   37 1    
    39   18   88 1    
    40   19   20 am   BACKBONE|DICT|INTERRES
    41   19   89 1    
    42   20   21 2    
    43   20   22 1    
    44   22   23 1    
    45   22   24 1    
    46   22   90 1    
    47   23   91 1    
    48   23   92 1    
    49   23   93 1    
    50   24   25 am   BACKBONE|DICT|INTERRES
    51   24   94 1    
    52   25   26 2    
    53   25   27 1    
    54   27   28 1    
    55   27   29 1    
    56   27   95 1    
    57   28   96 1    
    58   28   97 1    
    59   28   98 1    
    60   29   30 am   BACKBONE|DICT|INTERRES
    61   29   99 1    
    62   30   31 2    
    63   30   32 1    
    64   32   33 1    
    65   32   34 1    
    66   32  100 1    
    67   33  101 1    
    68   33  102 1    
    69   33  103 1    
    70   34   35 am   BACKBONE|DICT|INTERRES
    71   34  104 1    
    72   35   36 2    
    73   37   38 2    
    74   37   39 am   BACKBONE|DICT|INTERRES
    75   39   40 1    
    76   39  105 1    
    77   40   41 1    
    78   40   42 1    
    79   40  106 1    
    80   41  107 1    
    81   41  108 1    
    82   41  109 1    
    83   42   43 2    
    84   42   44 am   BACKBONE|DICT|INTERRES
    85   44   45 1    
    86   44  110 1    
    87   45   46 1    
    88   45   47 1    
    89   45  111 1    
    90   46  112 1    
    91   46  113 1    
    92   46  114 1    
    93   47   48 2    
    94   47   49 am   BACKBONE|DICT|INTERRES
    95   49   50 1    
    96   49  115 1    
    97   50   51 1    
    98   50   52 1    
    99   50  116 1    
   100   51  117 1    
   101   51  118 1    
   102   51  119 1    
   103   52   53 2    
   104   52   54 am   BACKBONE|DICT|INTERRES
   105   54   55 1    
   106   54  120 1    
   107   55   56 1    
   108   55   57 1    
   109   55  121 1    
   110   56  122 1    
   111   56  123 1    
   112   56  124 1    
   113   57   58 2    
   114   57   59 am   BACKBONE|DICT|INTERRES
   115   59   60 1    
   116   59  125 1    
   117   60   61 1    
   118   60   62 1    
   119   60  126 1    
   120   61  127 1    
   121   61  128 1    
   122   61  129 1    
   123   62   63 2    
   124   62   64 am   BACKBONE|DICT|INTERRES
   125   64   65 1    
   126   64  130 1    
   127   65   66 1    
   128   65   69 1    
   129   65  131 1    
   130   66   67 am   BACKBONE|DICT|INTERRES
   131   66   68 2    
   132   67  132 1    
   133   67  133 1    
   134   69   70 1    
   135   69  134 1    
   136   69  135 1    
   137   70   71 1    
   138   71  136 1    
   139   71  137 1    
@<TRIPOS>SUBSTRUCTURE
     1 UNK         1 GROUP             0       ****    0 ROOT    
