@<TRIPOS>MOLECULE
3R136
137   139    1
SMALL
USER_CHARGES


@<TRIPOS>ATOM
      1 CA         27.5173   21.0491    4.7227 C.3       0 UNK        -0.1979 
      2 C          27.0684   21.3647    3.3036 C.2       0 UNK         0.4864 
      3 O          26.1799   20.6924    2.7792 O.2       0 UNK        -0.5359 
      4 N          27.6685   22.3902    2.6843 N.am      1 UNK        -0.4318 
      5 CA         27.3963   22.8190    1.3043 C.3       1 UNK         0.0824 
      6 C6         28.6723   23.3765    0.6182 C.3       12 UNK        -0.0944 
      7 S7         29.8300   22.0228    0.2240 S.3       12 UNK        -0.2672 
      8 C8         31.1371   22.2305    1.4808 C.3       12 UNK         0.0333 
      9 C9         32.1803   23.2998    1.1565 C.ar      12 UNK        -0.0807 
     10 C10        32.8423   23.9397    2.2082 C.ar      12 UNK        -0.0894 
     11 C11        33.8408   24.8871    1.9595 C.ar      12 UNK        -0.0804 
     12 C12        34.1828   25.1925    0.6376 C.ar      12 UNK        -0.0824 
     13 C13        33.5345   24.5588   -0.4268 C.ar      12 UNK        -0.0762 
     14 C14        32.5404   23.6120   -0.1606 C.ar      12 UNK        -0.0782 
     15 C15        33.9159   24.8761   -1.8685 C.3       12 UNK         0.0230 
     16 S16        33.3980   26.5446   -2.3904 S.3       12 UNK        -0.2608 
     17 C17        31.6025   26.5055   -2.0537 C.3       12 UNK        -0.0989 
     18 CA         30.9038   27.8964   -2.1420 C.3       5 UNK         0.0716 
     19 N          29.4493   27.7706   -2.3016 N.am      5 UNK        -0.4135 
     20 C          28.6237   27.2227   -1.3996 C.2       4 UNK         0.5031 
     21 O          29.0080   26.6806   -0.3601 O.2       4 UNK        -0.5229 
     22 CA         27.1207   27.2663   -1.7157 C.3       4 UNK         0.0329 
     23 CB         26.7098   26.0462   -2.5551 C.3       4 UNK        -0.2001 
     24 N          26.3724   27.2768   -0.4563 N.am      4 UNK        -0.4303 
     25 C          26.1197   28.3952    0.2391 C.2       3 UNK         0.5044 
     26 O          26.2583   29.5223   -0.2363 O.2       3 UNK        -0.5152 
     27 CA         25.7018   28.2643    1.7194 C.3       3 UNK         0.0319 
     28 CB         24.6240   29.2929    2.1246 C.3       3 UNK        -0.2001 
     29 N          25.3454   26.9064    2.1485 N.am      3 UNK        -0.4354 
     30 C          24.2712   26.1917    1.7863 C.2       2 UNK         0.4964 
     31 O          23.3948   26.5983    1.0215 O.2       2 UNK        -0.5047 
     32 CA         24.1943   24.7673    2.3737 C.3       2 UNK         0.0288 
     33 CB         23.0548   23.9287    1.7551 C.3       2 UNK        -0.2113 
     34 N          25.4651   24.0271    2.2952 N.am      2 UNK        -0.4145 
     35 C          26.1886   23.7787    1.1895 C.2       1 UNK         0.5006 
     36 O          25.9188   24.2621    0.0904 O.2       1 UNK        -0.5103 
     37 C          31.2371   28.8704   -0.9812 C.2       5 UNK         0.5055 
     38 O          30.4841   29.8182   -0.7394 O.2       5 UNK        -0.5220 
     39 N          32.3526   28.6325   -0.2801 N.am      6 UNK        -0.4450 
     40 CA         32.8354   29.4353    0.8460 C.3       6 UNK         0.0367 
     41 CB         34.2923   29.0587    1.1500 C.3       6 UNK        -0.1929 
     42 C          31.9691   29.3206    2.1123 C.2       6 UNK         0.5070 
     43 O          32.1295   30.1405    3.0181 O.2       6 UNK        -0.5237 
     44 N          31.0423   28.3501    2.1600 N.am      7 UNK        -0.4739 
     45 CA         30.0839   28.1573    3.2542 C.3       7 UNK         0.0276 
     46 CB         29.2828   26.8666    3.0254 C.3       7 UNK        -0.1927 
     47 C          29.1449   29.3593    3.4683 C.2       7 UNK         0.5013 
     48 O          28.6513   29.5383    4.5810 O.2       7 UNK        -0.5193 
     49 N          28.9781   30.2050    2.4386 N.am      8 UNK        -0.4253 
     50 CA         28.3279   31.5185    2.5156 C.3       8 UNK         0.0242 
     51 CB         28.3031   32.1495    1.1144 C.3       8 UNK        -0.2000 
     52 C          29.0020   32.4874    3.5090 C.2       8 UNK         0.4948 
     53 O          28.3176   33.3429    4.0705 O.2       8 UNK        -0.5275 
     54 N          30.3148   32.3219    3.7221 N.am      9 UNK        -0.4246 
     55 CA         31.1233   33.0407    4.7078 C.3       9 UNK         0.0261 
     56 CB         32.3166   33.6888    3.9812 C.3       9 UNK        -0.1959 
     57 C          31.5893   32.0927    5.8306 C.2       9 UNK         0.5033 
     58 O          32.6102   32.3637    6.4668 O.2       9 UNK        -0.5390 
     59 N          30.8675   30.9761    6.0307 N.am      10 UNK        -0.4215 
     60 CA         31.1361   29.8936    6.9878 C.3       10 UNK         0.0240 
     61 CB         30.8857   30.3817    8.4306 C.3       10 UNK        -0.1982 
     62 C          32.5209   29.2312    6.8201 C.2       10 UNK         0.4970 
     63 O          33.0532   28.6920    7.7919 O.2       10 UNK        -0.4916 
     64 N          33.0821   29.2947    5.6036 N.am      11 UNK        -0.4279 
     65 CA         34.4387   28.8510    5.2457 C.3       11 UNK         0.1003 
     66 C          35.5785   29.6513    5.9487 C.2       11 UNK         0.5709 
     67 N          35.3237   30.8495    6.4655 N.am      11 UNK        -0.7358 
     68 O          36.7211   29.2016    5.9982 O.2       11 UNK        -0.4999 
     69 C69        34.6126   27.3067    5.3255 C.3       12 UNK        -0.0954 
     70 S70        33.4401   26.4379    4.2288 S.3       12 UNK        -0.2268 
     71 C71        34.5756   25.5468    3.1197 C.3       12 UNK         0.0203 
     72 H72        28.3018   21.7247    5.0634 H         1 UNK         0.0888 
     73 H73        26.6760   21.1317    5.4104 H         1 UNK         0.0888 
     74 H74        27.9017   20.0309    4.7755 H         1 UNK         0.0888 
     75 H75        28.3828   22.9119    3.1714 H         1 UNK         0.3017 
     76 H76        27.0867   21.9408    0.7327 H         1 UNK         0.0873 
     77 H77        29.1595   24.1369    1.2311 H         1 UNK         0.0745 
     78 H78        28.4356   23.8644   -0.3290 H         1 UNK         0.0745 
     79 H79        31.6569   21.2778    1.5879 H         1 UNK         0.0705 
     80 H80        30.6697   22.4333    2.4453 H         1 UNK         0.0705 
     81 H81        32.5898   23.6931    3.2307 H         1 UNK         0.1334 
     82 H82        34.9617   25.9138    0.4315 H         1 UNK         0.1417 
     83 H83        32.0545   23.1114   -0.9863 H         1 UNK         0.1562 
     84 H84        33.4837   24.1447   -2.5533 H         1 UNK         0.0748 
     85 H85        34.9978   24.7924   -1.9800 H         1 UNK         0.0748 
     86 H86        31.4154   26.0519   -1.0796 H         1 UNK         0.0940 
     87 H87        31.1583   25.8252   -2.7823 H         1 UNK         0.0940 
     88 H88        31.2546   28.3881   -3.0505 H         1 UNK         0.0703 
     89 H89        29.0553   28.2197   -3.1159 H         1 UNK         0.3081 
     90 H90        26.8970   28.1701   -2.2866 H         1 UNK         0.0719 
     91 H91        27.1557   26.0903   -3.5493 H         1 UNK         0.0809 
     92 H92        27.0349   25.1108   -2.0991 H         1 UNK         0.0809 
     93 H93        25.6285   25.9976   -2.6851 H         1 UNK         0.0809 
     94 H94        26.2410   26.3749   -0.0134 H         1 UNK         0.2990 
     95 H95        26.5969   28.5128    2.2880 H         1 UNK         0.0690 
     96 H96        24.3677   29.2050    3.1803 H         1 UNK         0.0788 
     97 H97        23.7091   29.1744    1.5438 H         1 UNK         0.0788 
     98 H98        24.9768   30.3124    1.9638 H         1 UNK         0.0788 
     99 H99        26.0059   26.4621    2.7706 H         1 UNK         0.2993 
    100 H100       23.9705   24.8913    3.4345 H         1 UNK         0.0949 
    101 H101       23.1919   23.7912    0.6817 H         1 UNK         0.0767 
    102 H102       22.9952   22.9416    2.2139 H         1 UNK         0.0767 
    103 H103       22.0876   24.4115    1.9013 H         1 UNK         0.0767 
    104 H104       25.7728   23.5914    3.1531 H         1 UNK         0.3013 
    105 H105       32.9215   27.8434   -0.5618 H         1 UNK         0.3121 
    106 H106       32.8142   30.4832    0.5394 H         1 UNK         0.0774 
    107 H107       34.3690   28.0461    1.5422 H         1 UNK         0.0815 
    108 H108       34.9183   29.1265    0.2602 H         1 UNK         0.0815 
    109 H109       34.7193   29.7317    1.8941 H         1 UNK         0.0815 
    110 H110       30.9626   27.7222    1.3720 H         1 UNK         0.2987 
    111 H111       30.6638   28.0347    4.1713 H         1 UNK         0.0949 
    112 H112       29.9427   26.0099    2.8855 H         1 UNK         0.0806 
    113 H113       28.6458   26.6488    3.8836 H         1 UNK         0.0806 
    114 H114       28.6364   26.9410    2.1520 H         1 UNK         0.0806 
    115 H115       29.4222   29.9733    1.5588 H         1 UNK         0.3010 
    116 H116       27.2998   31.3616    2.8482 H         1 UNK         0.0829 
    117 H117       29.3101   32.3134    0.7279 H         1 UNK         0.0813 
    118 H118       27.7965   33.1155    1.1289 H         1 UNK         0.0813 
    119 H119       27.7743   31.5202    0.4004 H         1 UNK         0.0813 
    120 H120       30.8008   31.5717    3.2378 H         1 UNK         0.3038 
    121 H121       30.5384   33.8313    5.1818 H         1 UNK         0.0769 
    122 H122       31.9818   34.3502    3.1821 H         1 UNK         0.0811 
    123 H123       32.9743   32.9374    3.5417 H         1 UNK         0.0811 
    124 H124       32.9166   34.2897    4.6658 H         1 UNK         0.0811 
    125 H125       30.0472   30.8313    5.4515 H         1 UNK         0.3204 
    126 H126       30.4057   29.1123    6.7731 H         1 UNK         0.0748 
    127 H127       29.8957   30.8263    8.5324 H         1 UNK         0.0771 
    128 H128       30.9414   29.5563    9.1415 H         1 UNK         0.0771 
    129 H129       31.6212   31.1262    8.7376 H         1 UNK         0.0771 
    130 H130       32.5793   29.7512    4.8488 H         1 UNK         0.2980 
    131 H131       34.5510   29.1218    4.1967 H         1 UNK         0.0545 
    132 H132       36.0700   31.3626    6.9063 H         1 UNK         0.3459 
    133 H133       34.3914   31.2465    6.4306 H         1 UNK         0.3459 
    134 H134       34.4673   26.9496    6.3456 H         1 UNK         0.0616 
    135 H135       35.6285   27.0197    5.0501 H         1 UNK         0.0616 
    136 H136       35.1029   24.7812    3.6904 H         1 UNK         0.0634 
    137 H137       35.3350   26.2380    2.7519 H         1 UNK         0.0634 
@<TRIPOS>BOND
     1    1    2 1    
     2    1   72 1    
     3    1   73 1    
     4    1   74 1    
     5    2    3 2    
     6    2    4 am   BACKBONE|DICT|INTERRES
     7    4    5 1    
     8    4   75 1    
     9    5    6 1    
    10    5   35 1    
    11    5   76 1    
    12    6    7 1    
    13    6   77 1    
    14    6   78 1    
    15    7    8 1    
    16    8    9 1    
    17    8   79 1    
    18    8   80 1    
    19    9   10 ar   
    20    9   14 ar   
    21   10   11 ar   
    22   10   81 1    
    23   11   12 ar   
    24   11   71 1    
    25   12   13 ar   
    26   12   82 1    
    27   13   14 ar   
    28   13   15 1    
    29   14   83 1    
    30   15   16 1    
    31   15   84 1    
    32   15   85 1    
    33   16   17 1    
    34   17   18 1    
    35   17   86 1    
    36   17   87 1    
    37   18   19 1    
    38   18   37 1    
    39   18   88 1    
    40   19   20 am   BACKBONE|DICT|INTERRES
    41   19   89 1    
    42   20   21 2    
    43   20   22 1    
    44   22   23 1    
    45   22   24 1    
    46   22   90 1    
    47   23   91 1    
    48   23   92 1    
    49   23   93 1    
    50   24   25 am   BACKBONE|DICT|INTERRES
    51   24   94 1    
    52   25   26 2    
    53   25   27 1    
    54   27   28 1    
    55   27   29 1    
    56   27   95 1    
    57   28   96 1    
    58   28   97 1    
    59   28   98 1    
    60   29   30 am   BACKBONE|DICT|INTERRES
    61   29   99 1    
    62   30   31 2    
    63   30   32 1    
    64   32   33 1    
    65   32   34 1    
    66   32  100 1    
    67   33  101 1    
    68   33  102 1    
    69   33  103 1    
    70   34   35 am   BACKBONE|DICT|INTERRES
    71   34  104 1    
    72   35   36 2    
    73   37   38 2    
    74   37   39 am   BACKBONE|DICT|INTERRES
    75   39   40 1    
    76   39  105 1    
    77   40   41 1    
    78   40   42 1    
    79   40  106 1    
    80   41  107 1    
    81   41  108 1    
    82   41  109 1    
    83   42   43 2    
    84   42   44 am   BACKBONE|DICT|INTERRES
    85   44   45 1    
    86   44  110 1    
    87   45   46 1    
    88   45   47 1    
    89   45  111 1    
    90   46  112 1    
    91   46  113 1    
    92   46  114 1    
    93   47   48 2    
    94   47   49 am   BACKBONE|DICT|INTERRES
    95   49   50 1    
    96   49  115 1    
    97   50   51 1    
    98   50   52 1    
    99   50  116 1    
   100   51  117 1    
   101   51  118 1    
   102   51  119 1    
   103   52   53 2    
   104   52   54 am   BACKBONE|DICT|INTERRES
   105   54   55 1    
   106   54  120 1    
   107   55   56 1    
   108   55   57 1    
   109   55  121 1    
   110   56  122 1    
   111   56  123 1    
   112   56  124 1    
   113   57   58 2    
   114   57   59 am   BACKBONE|DICT|INTERRES
   115   59   60 1    
   116   59  125 1    
   117   60   61 1    
   118   60   62 1    
   119   60  126 1    
   120   61  127 1    
   121   61  128 1    
   122   61  129 1    
   123   62   63 2    
   124   62   64 am   BACKBONE|DICT|INTERRES
   125   64   65 1    
   126   64  130 1    
   127   65   66 1    
   128   65   69 1    
   129   65  131 1    
   130   66   67 am   BACKBONE|DICT|INTERRES
   131   66   68 2    
   132   67  132 1    
   133   67  133 1    
   134   69   70 1    
   135   69  134 1    
   136   69  135 1    
   137   70   71 1    
   138   71  136 1    
   139   71  137 1    
@<TRIPOS>SUBSTRUCTURE
     1 UNK         1 GROUP             0       ****    0 ROOT    
