@<TRIPOS>MOLECULE
3R136
137   139    1
SMALL
USER_CHARGES


@<TRIPOS>ATOM
      1 CA         29.8028   16.9499   -0.5353 C.3       0 UNK        -0.1979 
      2 C          29.5738   18.3547   -1.0732 C.2       0 UNK         0.4864 
      3 O          29.4865   18.5381   -2.2879 O.2       0 UNK        -0.5359 
      4 N          29.4747   19.3472   -0.1785 N.am      1 UNK        -0.4318 
      5 CA         29.2462   20.7593   -0.5113 C.3       1 UNK         0.0824 
      6 C6         29.6410   21.6947    0.6605 C.3       12 UNK        -0.0944 
      7 S7         28.7155   21.3752    2.2061 S.3       12 UNK        -0.2672 
      8 C8         29.9104   21.9310    3.4601 C.3       12 UNK         0.0333 
      9 C9         30.0799   23.4428    3.4400 C.ar      12 UNK        -0.0807 
     10 C10        31.1881   24.0248    2.8164 C.ar      12 UNK        -0.0894 
     11 C11        31.3565   25.4135    2.7995 C.ar      12 UNK        -0.0804 
     12 C12        30.3907   26.2160    3.4215 C.ar      12 UNK        -0.0824 
     13 C13        29.2783   25.6490    4.0469 C.ar      12 UNK        -0.0762 
     14 C14        29.1280   24.2604    4.0541 C.ar      12 UNK        -0.0782 
     15 C15        28.2422   26.5330    4.7239 C.3       12 UNK         0.0230 
     16 S16        26.8594   26.9173    3.6053 S.3       12 UNK        -0.2608 
     17 C17        27.4865   28.3648    2.6824 C.3       12 UNK        -0.0989 
     18 CA         28.1301   28.0079    1.3176 C.3       5 UNK         0.0716 
     19 N          27.2482   27.1841    0.4882 N.am      5 UNK        -0.4135 
     20 C          27.6138   26.5207   -0.6146 C.2       4 UNK         0.5031 
     21 O          28.7605   26.5177   -1.0679 O.2       4 UNK        -0.5229 
     22 CA         26.5119   25.6819   -1.2887 C.3       4 UNK         0.0329 
     23 CB         26.9289   25.1562   -2.6746 C.3       4 UNK        -0.2001 
     24 N          26.1352   24.5526   -0.4345 N.am      4 UNK        -0.4303 
     25 C          25.3062   24.6374    0.6180 C.2       3 UNK         0.5044 
     26 O          24.7249   25.6806    0.9249 O.2       3 UNK        -0.5152 
     27 CA         25.1169   23.3797    1.4941 C.3       3 UNK         0.0319 
     28 CB         23.7332   23.3321    2.1764 C.3       3 UNK        -0.2001 
     29 N          25.4076   22.1171    0.8048 N.am      3 UNK        -0.4354 
     30 C          24.7872   21.6066   -0.2718 C.2       2 UNK         0.4964 
     31 O          23.7960   22.1145   -0.7983 O.2       2 UNK        -0.5047 
     32 CA         25.3994   20.3197   -0.8706 C.3       2 UNK         0.0288 
     33 CB         25.0881   20.1603   -2.3745 C.3       2 UNK        -0.2113 
     34 N          26.8456   20.1891   -0.6293 N.am      2 UNK        -0.4145 
     35 C          27.8083   21.0567   -0.9878 C.2       1 UNK         0.5006 
     36 O          27.5924   22.0941   -1.6149 O.2       1 UNK        -0.5103 
     37 C          28.5841   29.2857    0.5828 C.2       5 UNK         0.5055 
     38 O          27.9039   29.7482   -0.3386 O.2       5 UNK        -0.5220 
     39 N          29.7123   29.8458    1.0307 N.am      6 UNK        -0.4450 
     40 CA         30.2774   31.1023    0.5458 C.3       6 UNK         0.0367 
     41 CB         31.7965   30.9029    0.3688 C.3       6 UNK        -0.1929 
     42 C          29.9355   32.2288    1.5395 C.2       6 UNK         0.5070 
     43 O          28.9458   32.1341    2.2708 O.2       6 UNK        -0.5237 
     44 N          30.7640   33.2801    1.5640 N.am      7 UNK        -0.4739 
     45 CA         30.7890   34.2670    2.6443 C.3       7 UNK         0.0276 
     46 CB         31.6133   35.4841    2.1948 C.3       7 UNK        -0.1927 
     47 C          31.4105   33.6384    3.9013 C.2       7 UNK         0.5013 
     48 O          32.3102   32.8041    3.7719 O.2       7 UNK        -0.5193 
     49 N          30.9690   34.0773    5.0877 N.am      8 UNK        -0.4253 
     50 CA         31.3896   33.5472    6.3939 C.3       8 UNK         0.0242 
     51 CB         30.6124   34.2672    7.5077 C.3       8 UNK        -0.2000 
     52 C          32.9049   33.6118    6.6688 C.2       8 UNK         0.4948 
     53 O          33.4149   32.7834    7.4234 O.2       8 UNK        -0.5275 
     54 N          33.5975   34.5691    6.0356 N.am      9 UNK        -0.4246 
     55 CA         35.0561   34.6999    6.0545 C.3       9 UNK         0.0261 
     56 CB         35.4429   36.0817    5.5022 C.3       9 UNK        -0.1959 
     57 C          35.7865   33.5872    5.2759 C.2       9 UNK         0.5033 
     58 O          36.9515   33.3223    5.5767 O.2       9 UNK        -0.5390 
     59 N          35.1104   32.9676    4.2981 N.am      10 UNK        -0.4215 
     60 CA         35.6127   31.8375    3.5192 C.3       10 UNK         0.0240 
     61 CB         35.2084   31.9982    2.0425 C.3       10 UNK        -0.1982 
     62 C          35.0880   30.5255    4.1162 C.2       10 UNK         0.4970 
     63 O          35.8933   29.7071    4.5614 O.2       10 UNK        -0.4916 
     64 N          33.7592   30.3694    4.1484 N.am      11 UNK        -0.4279 
     65 CA         33.0458   29.2392    4.7498 C.3       11 UNK         0.1003 
     66 C          31.5336   29.5655    4.8432 C.2       11 UNK         0.5709 
     67 N          30.9549   29.5237    6.0352 N.am      11 UNK        -0.7358 
     68 O          30.8709   29.8189    3.8395 O.2       11 UNK        -0.4999 
     69 C69        33.3307   27.8682    4.0641 C.3       12 UNK        -0.0954 
     70 S70        32.8977   27.7748    2.2896 S.3       12 UNK        -0.2268 
     71 C71        32.5874   25.9843    2.0868 C.3       12 UNK         0.0203 
     72 H72        29.8615   16.9342    0.5530 H         1 UNK         0.0888 
     73 H73        30.7338   16.5444   -0.9305 H         1 UNK         0.0888 
     74 H74        28.9882   16.2936   -0.8405 H         1 UNK         0.0888 
     75 H75        29.5580   19.1435    0.8082 H         1 UNK         0.3017 
     76 H76        29.8978   21.0043   -1.3532 H         1 UNK         0.0873 
     77 H77        30.7078   21.5817    0.8587 H         1 UNK         0.0745 
     78 H78        29.5048   22.7427    0.3843 H         1 UNK         0.0745 
     79 H79        29.5583   21.6180    4.4441 H         1 UNK         0.0705 
     80 H80        30.8668   21.4287    3.3068 H         1 UNK         0.0705 
     81 H81        31.9240   23.3926    2.3383 H         1 UNK         0.1334 
     82 H82        30.4857   27.2896    3.4163 H         1 UNK         0.1417 
     83 H83        28.2665   23.8147    4.5330 H         1 UNK         0.1562 
     84 H84        28.6987   27.4521    5.0945 H         1 UNK         0.0748 
     85 H85        27.8461   26.0211    5.6021 H         1 UNK         0.0748 
     86 H86        28.1932   28.9111    3.3104 H         1 UNK         0.0940 
     87 H87        26.6439   29.0430    2.5320 H         1 UNK         0.0940 
     88 H88        29.0245   27.4128    1.4978 H         1 UNK         0.0703 
     89 H89        26.2940   27.0765    0.8127 H         1 UNK         0.3081 
     90 H90        25.6433   26.3283   -1.4327 H         1 UNK         0.0719 
     91 H91        27.8222   24.5331   -2.6209 H         1 UNK         0.0809 
     92 H92        26.1354   24.5636   -3.1302 H         1 UNK         0.0809 
     93 H93        27.1500   25.9817   -3.3522 H         1 UNK         0.0809 
     94 H94        26.5857   23.6675   -0.6408 H         1 UNK         0.2990 
     95 H95        25.8653   23.4629    2.2840 H         1 UNK         0.0690 
     96 H96        23.6297   22.4465    2.8032 H         1 UNK         0.0788 
     97 H97        22.9221   23.3259    1.4478 H         1 UNK         0.0788 
     98 H98        23.5843   24.2004    2.8195 H         1 UNK         0.0788 
     99 H99        26.2163   21.6187    1.1517 H         1 UNK         0.2993 
    100 H100       24.9234   19.4907   -0.3447 H         1 UNK         0.0949 
    101 H101       24.0128   20.1112   -2.5504 H         1 UNK         0.0767 
    102 H102       25.4754   20.9964   -2.9580 H         1 UNK         0.0767 
    103 H103       25.5221   19.2436   -2.7739 H         1 UNK         0.0767 
    104 H104       27.1301   19.3800   -0.0950 H         1 UNK         0.3013 
    105 H105       30.1415   29.4907    1.8792 H         1 UNK         0.3121 
    106 H106       29.8475   31.3707   -0.4212 H         1 UNK         0.0774 
    107 H107       32.0086   30.0397   -0.2625 H         1 UNK         0.0815 
    108 H108       32.2897   30.7361    1.3275 H         1 UNK         0.0815 
    109 H109       32.2673   31.7633   -0.1070 H         1 UNK         0.0815 
    110 H110       31.5635   33.2722    0.9483 H         1 UNK         0.2987 
    111 H111       29.7671   34.5845    2.8640 H         1 UNK         0.0949 
    112 H112       32.6496   35.2163    1.9831 H         1 UNK         0.0806 
    113 H113       31.1939   35.9365    1.2960 H         1 UNK         0.0806 
    114 H114       31.6270   36.2550    2.9664 H         1 UNK         0.0806 
    115 H115       30.2446   34.7812    5.1031 H         1 UNK         0.3010 
    116 H116       31.1115   32.4913    6.4132 H         1 UNK         0.0829 
    117 H117       29.5367   34.1305    7.3950 H         1 UNK         0.0813 
    118 H118       30.8840   33.8761    8.4894 H         1 UNK         0.0813 
    119 H119       30.8176   35.3385    7.5159 H         1 UNK         0.0813 
    120 H120       33.0887   35.2154    5.4504 H         1 UNK         0.3038 
    121 H121       35.3869   34.6421    7.0938 H         1 UNK         0.0769 
    122 H122       35.1256   36.2067    4.4660 H         1 UNK         0.0811 
    123 H123       36.5242   36.2240    5.5306 H         1 UNK         0.0811 
    124 H124       34.9976   36.8842    6.0906 H         1 UNK         0.0811 
    125 H125       34.1273   33.1895    4.1655 H         1 UNK         0.3204 
    126 H126       36.7038   31.8081    3.5592 H         1 UNK         0.0748 
    127 H127       35.7008   32.8617    1.5951 H         1 UNK         0.0771 
    128 H128       35.4964   31.1223    1.4595 H         1 UNK         0.0771 
    129 H129       34.1345   32.1343    1.9217 H         1 UNK         0.0771 
    130 H130       33.1590   31.1211    3.8147 H         1 UNK         0.2980 
    131 H131       33.4211   29.1627    5.7723 H         1 UNK         0.0545 
    132 H132       29.9710   29.7265    6.1042 H         1 UNK         0.3459 
    133 H133       31.4808   29.3035    6.8663 H         1 UNK         0.3459 
    134 H134       32.8059   27.0801    4.6054 H         1 UNK         0.0616 
    135 H135       34.3865   27.6136    4.1566 H         1 UNK         0.0616 
    136 H136       33.4767   25.4460    2.4182 H         1 UNK         0.0634 
    137 H137       32.4850   25.7834    1.0196 H         1 UNK         0.0634 
@<TRIPOS>BOND
     1    1    2 1    
     2    1   72 1    
     3    1   73 1    
     4    1   74 1    
     5    2    3 2    
     6    2    4 am   BACKBONE|DICT|INTERRES
     7    4    5 1    
     8    4   75 1    
     9    5    6 1    
    10    5   35 1    
    11    5   76 1    
    12    6    7 1    
    13    6   77 1    
    14    6   78 1    
    15    7    8 1    
    16    8    9 1    
    17    8   79 1    
    18    8   80 1    
    19    9   10 ar   
    20    9   14 ar   
    21   10   11 ar   
    22   10   81 1    
    23   11   12 ar   
    24   11   71 1    
    25   12   13 ar   
    26   12   82 1    
    27   13   14 ar   
    28   13   15 1    
    29   14   83 1    
    30   15   16 1    
    31   15   84 1    
    32   15   85 1    
    33   16   17 1    
    34   17   18 1    
    35   17   86 1    
    36   17   87 1    
    37   18   19 1    
    38   18   37 1    
    39   18   88 1    
    40   19   20 am   BACKBONE|DICT|INTERRES
    41   19   89 1    
    42   20   21 2    
    43   20   22 1    
    44   22   23 1    
    45   22   24 1    
    46   22   90 1    
    47   23   91 1    
    48   23   92 1    
    49   23   93 1    
    50   24   25 am   BACKBONE|DICT|INTERRES
    51   24   94 1    
    52   25   26 2    
    53   25   27 1    
    54   27   28 1    
    55   27   29 1    
    56   27   95 1    
    57   28   96 1    
    58   28   97 1    
    59   28   98 1    
    60   29   30 am   BACKBONE|DICT|INTERRES
    61   29   99 1    
    62   30   31 2    
    63   30   32 1    
    64   32   33 1    
    65   32   34 1    
    66   32  100 1    
    67   33  101 1    
    68   33  102 1    
    69   33  103 1    
    70   34   35 am   BACKBONE|DICT|INTERRES
    71   34  104 1    
    72   35   36 2    
    73   37   38 2    
    74   37   39 am   BACKBONE|DICT|INTERRES
    75   39   40 1    
    76   39  105 1    
    77   40   41 1    
    78   40   42 1    
    79   40  106 1    
    80   41  107 1    
    81   41  108 1    
    82   41  109 1    
    83   42   43 2    
    84   42   44 am   BACKBONE|DICT|INTERRES
    85   44   45 1    
    86   44  110 1    
    87   45   46 1    
    88   45   47 1    
    89   45  111 1    
    90   46  112 1    
    91   46  113 1    
    92   46  114 1    
    93   47   48 2    
    94   47   49 am   BACKBONE|DICT|INTERRES
    95   49   50 1    
    96   49  115 1    
    97   50   51 1    
    98   50   52 1    
    99   50  116 1    
   100   51  117 1    
   101   51  118 1    
   102   51  119 1    
   103   52   53 2    
   104   52   54 am   BACKBONE|DICT|INTERRES
   105   54   55 1    
   106   54  120 1    
   107   55   56 1    
   108   55   57 1    
   109   55  121 1    
   110   56  122 1    
   111   56  123 1    
   112   56  124 1    
   113   57   58 2    
   114   57   59 am   BACKBONE|DICT|INTERRES
   115   59   60 1    
   116   59  125 1    
   117   60   61 1    
   118   60   62 1    
   119   60  126 1    
   120   61  127 1    
   121   61  128 1    
   122   61  129 1    
   123   62   63 2    
   124   62   64 am   BACKBONE|DICT|INTERRES
   125   64   65 1    
   126   64  130 1    
   127   65   66 1    
   128   65   69 1    
   129   65  131 1    
   130   66   67 am   BACKBONE|DICT|INTERRES
   131   66   68 2    
   132   67  132 1    
   133   67  133 1    
   134   69   70 1    
   135   69  134 1    
   136   69  135 1    
   137   70   71 1    
   138   71  136 1    
   139   71  137 1    
@<TRIPOS>SUBSTRUCTURE
     1 UNK         1 GROUP             0       ****    0 ROOT    
