@<TRIPOS>MOLECULE
3R136
137   139    1
SMALL
USER_CHARGES


@<TRIPOS>ATOM
      1 CA         32.8341   17.8936   -0.4623 C.3       0 UNK        -0.1979 
      2 C          32.5081   19.1971    0.2521 C.2       0 UNK         0.4864 
      3 O          33.3504   20.0952    0.2999 O.2       0 UNK        -0.5359 
      4 N          31.2967   19.3042    0.8139 N.am      1 UNK        -0.4318 
      5 CA         30.7873   20.5070    1.4785 C.3       1 UNK         0.0824 
      6 C6         29.5674   20.1671    2.3738 C.3       12 UNK        -0.0944 
      7 S7         29.2581   21.4324    3.6518 S.3       12 UNK        -0.2672 
      8 C8         27.7695   22.2441    2.9741 C.3       12 UNK         0.0333 
      9 C9         27.5279   23.6706    3.4686 C.ar      12 UNK        -0.0807 
     10 C10        28.5708   24.5042    3.8961 C.ar      12 UNK        -0.0894 
     11 C11        28.3161   25.8202    4.2922 C.ar      12 UNK        -0.0804 
     12 C12        27.0078   26.3094    4.2632 C.ar      12 UNK        -0.0824 
     13 C13        25.9626   25.5030    3.8071 C.ar      12 UNK        -0.0762 
     14 C14        26.2276   24.1845    3.4236 C.ar      12 UNK        -0.0782 
     15 C15        24.5497   26.0566    3.7017 C.3       12 UNK         0.0230 
     16 S16        24.1410   26.5101    1.9844 S.3       12 UNK        -0.2608 
     17 C17        24.8647   28.1807    1.8202 C.3       12 UNK        -0.0989 
     18 CA         26.3098   28.1888    1.2471 C.3       5 UNK         0.0716 
     19 N          26.4620   27.4726   -0.0225 N.am      5 UNK        -0.4135 
     20 C          25.9049   27.7751   -1.2063 C.2       4 UNK         0.5031 
     21 O          25.1620   28.7389   -1.3965 O.2       4 UNK        -0.5229 
     22 CA         26.2282   26.8480   -2.3977 C.3       4 UNK         0.0329 
     23 CB         27.3022   27.4861   -3.2942 C.3       4 UNK        -0.2001 
     24 N          26.6795   25.5157   -1.9898 N.am      4 UNK        -0.4303 
     25 C          25.9136   24.6005   -1.3806 C.2       3 UNK         0.5044 
     26 O          24.6911   24.7030   -1.2743 O.2       3 UNK        -0.5152 
     27 CA         26.6162   23.3745   -0.7618 C.3       3 UNK         0.0319 
     28 CB         26.2225   22.0884   -1.5067 C.3       3 UNK        -0.2001 
     29 N          28.0827   23.4338   -0.6748 N.am      3 UNK        -0.4354 
     30 C          28.8230   24.3485   -0.0327 C.2       2 UNK         0.4964 
     31 O          28.3551   25.3637    0.4843 O.2       2 UNK        -0.5047 
     32 CA         30.3376   24.0666    0.0358 C.3       2 UNK         0.0288 
     33 CB         31.1313   25.2521    0.6149 C.3       2 UNK        -0.2113 
     34 N          30.6347   22.8724    0.8329 N.am      2 UNK        -0.4145 
     35 C          30.4565   21.6034    0.4412 C.2       1 UNK         0.5006 
     36 O          30.0171   21.2893   -0.6697 O.2       1 UNK        -0.5103 
     37 C          26.9077   29.6067    1.1478 C.2       5 UNK         0.5055 
     38 O          26.1771   30.6007    1.1720 O.2       5 UNK        -0.5220 
     39 N          28.2377   29.6611    1.0021 N.am      6 UNK        -0.4450 
     40 CA         29.0375   30.8871    0.9516 C.3       6 UNK         0.0367 
     41 CB         30.4519   30.5204    0.4625 C.3       6 UNK        -0.1929 
     42 C          29.1000   31.6170    2.3094 C.2       6 UNK         0.5070 
     43 O          28.6275   31.1015    3.3257 O.2       6 UNK        -0.5237 
     44 N          29.7191   32.8055    2.3077 N.am      7 UNK        -0.4739 
     45 CA         30.0637   33.5591    3.5173 C.3       7 UNK         0.0276 
     46 CB         30.5966   34.9431    3.1141 C.3       7 UNK        -0.1927 
     47 C          31.1147   32.8082    4.3516 C.2       7 UNK         0.5013 
     48 O          32.0026   32.1775    3.7731 O.2       7 UNK        -0.5193 
     49 N          31.0210   32.9107    5.6842 N.am      8 UNK        -0.4253 
     50 CA         31.8099   32.1473    6.6640 C.3       8 UNK         0.0242 
     51 CB         31.3750   32.5519    8.0822 C.3       8 UNK        -0.2000 
     52 C          33.3425   32.2451    6.5280 C.2       8 UNK         0.4948 
     53 O          34.0397   31.3281    6.9617 O.2       8 UNK        -0.5275 
     54 N          33.8402   33.3310    5.9212 N.am      9 UNK        -0.4246 
     55 CA         35.2529   33.5195    5.5833 C.3       9 UNK         0.0261 
     56 CB         35.4945   35.0004    5.2477 C.3       9 UNK        -0.1959 
     57 C          35.7361   32.6228    4.4251 C.2       9 UNK         0.5033 
     58 O          36.9351   32.3495    4.3494 O.2       9 UNK        -0.5390 
     59 N          34.8187   32.2012    3.5435 N.am      10 UNK        -0.4215 
     60 CA         35.0947   31.3682    2.3710 C.3       10 UNK         0.0240 
     61 CB         34.4683   32.0296    1.1313 C.3       10 UNK        -0.1982 
     62 C          34.5533   29.9397    2.5361 C.2       10 UNK         0.4970 
     63 O          35.1808   29.0050    2.0368 O.2       10 UNK        -0.4916 
     64 N          33.3987   29.7956    3.2003 N.am      11 UNK        -0.4279 
     65 CA         32.7021   28.5227    3.4323 C.3       11 UNK         0.1003 
     66 C          33.5128   27.5008    4.2774 C.2       11 UNK         0.5709 
     67 N          33.2987   26.2106    4.0574 N.am      11 UNK        -0.7358 
     68 O          34.2982   27.8625    5.1514 O.2       11 UNK        -0.4999 
     69 C69        31.2902   28.7680    4.0327 C.3       12 UNK        -0.0954 
     70 S70        30.0275   27.6976    3.2782 S.3       12 UNK        -0.2268 
     71 C71        29.4586   26.7320    4.7058 C.3       12 UNK         0.0203 
     72 H72        32.0074   17.1848   -0.4155 H         1 UNK         0.0888 
     73 H73        33.7077   17.4255   -0.0094 H         1 UNK         0.0888 
     74 H74        33.0558   18.0867   -1.5116 H         1 UNK         0.0888 
     75 H75        30.6371   18.5462    0.7124 H         1 UNK         0.3017 
     76 H76        31.5902   20.8782    2.1202 H         1 UNK         0.0873 
     77 H77        29.7534   19.2343    2.9092 H         1 UNK         0.0745 
     78 H78        28.6694   19.9889    1.7783 H         1 UNK         0.0745 
     79 H79        27.8385   22.2737    1.8881 H         1 UNK         0.0705 
     80 H80        26.9080   21.6174    3.2100 H         1 UNK         0.0705 
     81 H81        29.5899   24.1461    3.9009 H         1 UNK         0.1334 
     82 H82        26.8127   27.3328    4.5536 H         1 UNK         0.1417 
     83 H83        25.4172   23.5656    3.0627 H         1 UNK         0.1562 
     84 H84        24.4122   26.9144    4.3618 H         1 UNK         0.0748 
     85 H85        23.8412   25.2992    4.0405 H         1 UNK         0.0748 
     86 H86        24.8411   28.6760    2.7924 H         1 UNK         0.0940 
     87 H87        24.2013   28.7619    1.1771 H         1 UNK         0.0940 
     88 H88        26.9410   27.6486    1.9512 H         1 UNK         0.0703 
     89 H89        27.0728   26.6603    0.0294 H         1 UNK         0.3081 
     90 H90        25.3134   26.7329   -2.9830 H         1 UNK         0.0719 
     91 H91        26.9841   28.4695   -3.6435 H         1 UNK         0.0809 
     92 H92        28.2455   27.6192   -2.7627 H         1 UNK         0.0809 
     93 H93        27.4955   26.8777   -4.1779 H         1 UNK         0.0809 
     94 H94        27.6717   25.3373   -2.0372 H         1 UNK         0.2990 
     95 H95        26.2433   23.2996    0.2614 H         1 UNK         0.0690 
     96 H96        26.6156   21.2031   -1.0061 H         1 UNK         0.0788 
     97 H97        26.5952   22.0885   -2.5317 H         1 UNK         0.0788 
     98 H98        25.1382   21.9758   -1.5533 H         1 UNK         0.0788 
     99 H99        28.5812   22.6248   -1.0339 H         1 UNK         0.2993 
    100 H100       30.6838   23.9015   -0.9869 H         1 UNK         0.0949 
    101 H101       30.8698   25.4316    1.6573 H         1 UNK         0.0767 
    102 H102       32.2056   25.0746    0.5631 H         1 UNK         0.0767 
    103 H103       30.9281   26.1714    0.0635 H         1 UNK         0.0767 
    104 H104       30.9539   23.0384    1.7762 H         1 UNK         0.3013 
    105 H105       28.7551   28.7945    1.0430 H         1 UNK         0.3121 
    106 H106       28.5776   31.5627    0.2275 H         1 UNK         0.0774 
    107 H107       30.9714   29.8795    1.1755 H         1 UNK         0.0815 
    108 H108       30.4192   29.9988   -0.4942 H         1 UNK         0.0815 
    109 H109       31.0681   31.4083    0.3189 H         1 UNK         0.0815 
    110 H110       30.1019   33.1515    1.4401 H         1 UNK         0.2987 
    111 H111       29.1569   33.6838    4.1131 H         1 UNK         0.0949 
    112 H112       29.8593   35.4991    2.5346 H         1 UNK         0.0806 
    113 H113       30.8336   35.5436    3.9934 H         1 UNK         0.0806 
    114 H114       31.5062   34.8676    2.5163 H         1 UNK         0.0806 
    115 H115       30.2780   33.4789    6.0658 H         1 UNK         0.3010 
    116 H116       31.5542   31.0954    6.5194 H         1 UNK         0.0829 
    117 H117       31.9202   31.9827    8.8369 H         1 UNK         0.0813 
    118 H118       30.3138   32.3614    8.2434 H         1 UNK         0.0813 
    119 H119       31.5614   33.6092    8.2747 H         1 UNK         0.0813 
    120 H120       33.1948   34.0424    5.6106 H         1 UNK         0.3038 
    121 H121       35.8499   33.2676    6.4627 H         1 UNK         0.0769 
    122 H122       35.2309   35.6462    6.0855 H         1 UNK         0.0811 
    123 H123       34.9143   35.3188    4.3805 H         1 UNK         0.0811 
    124 H124       36.5459   35.1820    5.0199 H         1 UNK         0.0811 
    125 H125       33.8408   32.4290    3.7068 H         1 UNK         0.3204 
    126 H126       36.1713   31.2926    2.2038 H         1 UNK         0.0748 
    127 H127       34.6474   31.4329    0.2357 H         1 UNK         0.0771 
    128 H128       33.3888   32.1464    1.2369 H         1 UNK         0.0771 
    129 H129       34.8948   33.0169    0.9533 H         1 UNK         0.0771 
    130 H130       32.9235   30.6279    3.5375 H         1 UNK         0.2980 
    131 H131       32.5874   28.0884    2.4368 H         1 UNK         0.0545 
    132 H132       32.6407   25.9085    3.3579 H         1 UNK         0.3459 
    133 H133       33.8039   25.5305    4.6029 H         1 UNK         0.3459 
    134 H134       30.9593   29.7861    3.8363 H         1 UNK         0.0616 
    135 H135       31.2826   28.6719    5.1202 H         1 UNK         0.0616 
    136 H136       29.1309   27.4078    5.4972 H         1 UNK         0.0634 
    137 H137       30.2896   26.1513    5.1092 H         1 UNK         0.0634 
@<TRIPOS>BOND
     1    1    2 1    
     2    1   72 1    
     3    1   73 1    
     4    1   74 1    
     5    2    3 2    
     6    2    4 am   BACKBONE|DICT|INTERRES
     7    4    5 1    
     8    4   75 1    
     9    5    6 1    
    10    5   35 1    
    11    5   76 1    
    12    6    7 1    
    13    6   77 1    
    14    6   78 1    
    15    7    8 1    
    16    8    9 1    
    17    8   79 1    
    18    8   80 1    
    19    9   10 ar   
    20    9   14 ar   
    21   10   11 ar   
    22   10   81 1    
    23   11   12 ar   
    24   11   71 1    
    25   12   13 ar   
    26   12   82 1    
    27   13   14 ar   
    28   13   15 1    
    29   14   83 1    
    30   15   16 1    
    31   15   84 1    
    32   15   85 1    
    33   16   17 1    
    34   17   18 1    
    35   17   86 1    
    36   17   87 1    
    37   18   19 1    
    38   18   37 1    
    39   18   88 1    
    40   19   20 am   BACKBONE|DICT|INTERRES
    41   19   89 1    
    42   20   21 2    
    43   20   22 1    
    44   22   23 1    
    45   22   24 1    
    46   22   90 1    
    47   23   91 1    
    48   23   92 1    
    49   23   93 1    
    50   24   25 am   BACKBONE|DICT|INTERRES
    51   24   94 1    
    52   25   26 2    
    53   25   27 1    
    54   27   28 1    
    55   27   29 1    
    56   27   95 1    
    57   28   96 1    
    58   28   97 1    
    59   28   98 1    
    60   29   30 am   BACKBONE|DICT|INTERRES
    61   29   99 1    
    62   30   31 2    
    63   30   32 1    
    64   32   33 1    
    65   32   34 1    
    66   32  100 1    
    67   33  101 1    
    68   33  102 1    
    69   33  103 1    
    70   34   35 am   BACKBONE|DICT|INTERRES
    71   34  104 1    
    72   35   36 2    
    73   37   38 2    
    74   37   39 am   BACKBONE|DICT|INTERRES
    75   39   40 1    
    76   39  105 1    
    77   40   41 1    
    78   40   42 1    
    79   40  106 1    
    80   41  107 1    
    81   41  108 1    
    82   41  109 1    
    83   42   43 2    
    84   42   44 am   BACKBONE|DICT|INTERRES
    85   44   45 1    
    86   44  110 1    
    87   45   46 1    
    88   45   47 1    
    89   45  111 1    
    90   46  112 1    
    91   46  113 1    
    92   46  114 1    
    93   47   48 2    
    94   47   49 am   BACKBONE|DICT|INTERRES
    95   49   50 1    
    96   49  115 1    
    97   50   51 1    
    98   50   52 1    
    99   50  116 1    
   100   51  117 1    
   101   51  118 1    
   102   51  119 1    
   103   52   53 2    
   104   52   54 am   BACKBONE|DICT|INTERRES
   105   54   55 1    
   106   54  120 1    
   107   55   56 1    
   108   55   57 1    
   109   55  121 1    
   110   56  122 1    
   111   56  123 1    
   112   56  124 1    
   113   57   58 2    
   114   57   59 am   BACKBONE|DICT|INTERRES
   115   59   60 1    
   116   59  125 1    
   117   60   61 1    
   118   60   62 1    
   119   60  126 1    
   120   61  127 1    
   121   61  128 1    
   122   61  129 1    
   123   62   63 2    
   124   62   64 am   BACKBONE|DICT|INTERRES
   125   64   65 1    
   126   64  130 1    
   127   65   66 1    
   128   65   69 1    
   129   65  131 1    
   130   66   67 am   BACKBONE|DICT|INTERRES
   131   66   68 2    
   132   67  132 1    
   133   67  133 1    
   134   69   70 1    
   135   69  134 1    
   136   69  135 1    
   137   70   71 1    
   138   71  136 1    
   139   71  137 1    
@<TRIPOS>SUBSTRUCTURE
     1 UNK         1 GROUP             0       ****    0 ROOT    
