@<TRIPOS>MOLECULE
3R136
137   139    1
SMALL
USER_CHARGES


@<TRIPOS>ATOM
      1 CA         28.7627   27.4565   -5.3201 C.3       0 UNK        -0.1979 
      2 C          28.3918   26.9449   -3.9360 C.2       0 UNK         0.4864 
      3 O          27.2162   26.9700   -3.5705 O.2       0 UNK        -0.5359 
      4 N          29.3867   26.4909   -3.1631 N.am      1 UNK        -0.4318 
      5 CA         29.2114   25.9238   -1.8236 C.3       1 UNK         0.0824 
      6 C6         30.5565   25.8913   -1.0521 C.3       12 UNK        -0.0944 
      7 S7         30.3435   26.2665    0.7125 S.3       12 UNK        -0.2672 
      8 C8         30.6424   24.6479    1.4905 C.3       12 UNK         0.0333 
      9 C9         30.9039   24.8231    2.9787 C.ar      12 UNK        -0.0807 
     10 C10        32.1921   24.6697    3.4986 C.ar      12 UNK        -0.0894 
     11 C11        32.4414   24.8717    4.8600 C.ar      12 UNK        -0.0804 
     12 C12        31.3869   25.2754    5.6893 C.ar      12 UNK        -0.0824 
     13 C13        30.0947   25.4533    5.1828 C.ar      12 UNK        -0.0762 
     14 C14        29.8557   25.1703    3.8329 C.ar      12 UNK        -0.0782 
     15 C15        29.0044   25.9506    6.1354 C.3       12 UNK         0.0230 
     16 S16        27.4094   26.4313    5.3755 S.3       12 UNK        -0.2608 
     17 C17        27.8170   27.9496    4.4339 C.3       12 UNK        -0.0989 
     18 CA         27.5064   27.8150    2.9152 C.3       5 UNK         0.0716 
     19 N          26.1223   27.3793    2.6909 N.am      5 UNK        -0.4135 
     20 C          25.6931   26.6490    1.6579 C.2       4 UNK         0.5031 
     21 O          26.4113   26.3068    0.7123 O.2       4 UNK        -0.5229 
     22 CA         24.2032   26.2831    1.6506 C.3       4 UNK         0.0329 
     23 CB         23.4671   27.0485    0.5388 C.3       4 UNK        -0.2001 
     24 N          24.0779   24.8495    1.4181 N.am      4 UNK        -0.4303 
     25 C          24.1796   23.9117    2.3708 C.2       3 UNK         0.5044 
     26 O          24.1573   24.1497    3.5787 O.2       3 UNK        -0.5152 
     27 CA         24.3831   22.4635    1.8847 C.3       3 UNK         0.0319 
     28 CB         23.0322   21.7499    1.7164 C.3       3 UNK        -0.2001 
     29 N          25.1296   22.4065    0.6228 N.am      3 UNK        -0.4354 
     30 C          26.4091   22.7852    0.4841 C.2       2 UNK         0.4964 
     31 O          27.1463   23.0567    1.4334 O.2       2 UNK        -0.5047 
     32 CA         26.9496   22.9291   -0.9447 C.3       2 UNK         0.0288 
     33 CB         25.8790   22.7973   -2.0537 C.3       2 UNK        -0.2113 
     34 N          27.6188   24.2251   -1.0419 N.am      2 UNK        -0.4145 
     35 C          28.5886   24.5169   -1.9137 C.2       1 UNK         0.5006 
     36 O          29.0189   23.7199   -2.7530 O.2       1 UNK        -0.5103 
     37 C          27.8246   29.0928    2.1028 C.2       5 UNK         0.5055 
     38 O          28.4029   30.0412    2.6348 O.2       5 UNK        -0.5220 
     39 N          27.4039   29.1049    0.8298 N.am      6 UNK        -0.4450 
     40 CA         27.3663   30.2717   -0.0553 C.3       6 UNK         0.0367 
     41 CB         26.5127   29.9313   -1.2873 C.3       6 UNK        -0.1929 
     42 C          28.7433   30.7974   -0.4900 C.2       6 UNK         0.5070 
     43 O          28.8644   31.9902   -0.7704 O.2       6 UNK        -0.5237 
     44 N          29.7467   29.9146   -0.5429 N.am      7 UNK        -0.4739 
     45 CA         31.1263   30.2405   -0.9160 C.3       7 UNK         0.0276 
     46 CB         31.3927   29.7783   -2.3614 C.3       7 UNK        -0.1927 
     47 C          32.1203   29.6579    0.1020 C.2       7 UNK         0.5013 
     48 O          33.2515   29.3321   -0.2599 O.2       7 UNK        -0.5193 
     49 N          31.6757   29.5320    1.3603 N.am      8 UNK        -0.4253 
     50 CA         32.4497   28.9711    2.4693 C.3       8 UNK         0.0242 
     51 CB         31.4779   28.5878    3.5926 C.3       8 UNK        -0.2000 
     52 C          33.5387   29.9211    2.9964 C.2       8 UNK         0.4948 
     53 O          34.5276   29.4469    3.5582 O.2       8 UNK        -0.5275 
     54 N          33.3391   31.2375    2.8166 N.am      9 UNK        -0.4246 
     55 CA         34.2120   32.3314    3.2586 C.3       9 UNK         0.0261 
     56 CB         35.4992   32.3722    2.4024 C.3       9 UNK        -0.1959 
     57 C          34.4582   32.2622    4.7783 C.2       9 UNK         0.5033 
     58 O          33.4952   32.3555    5.5421 O.2       9 UNK        -0.5390 
     59 N          35.7150   32.0504    5.1928 N.am      10 UNK        -0.4215 
     60 CA         36.1277   31.8639    6.5880 C.3       10 UNK         0.0240 
     61 CB         37.6626   31.8024    6.6553 C.3       10 UNK        -0.1982 
     62 C          35.5085   30.6291    7.2732 C.2       10 UNK         0.4970 
     63 O          35.4139   30.6181    8.5012 O.2       10 UNK        -0.4916 
     64 N          35.0900   29.6287    6.4856 N.am      11 UNK        -0.4279 
     65 CA         34.3318   28.4604    6.9524 C.3       11 UNK         0.1003 
     66 C          32.8178   28.7526    7.1958 C.2       11 UNK         0.5709 
     67 N          32.2854   29.9118    6.8206 N.am      11 UNK        -0.7358 
     68 O          32.1118   27.9257    7.7659 O.2       11 UNK        -0.4999 
     69 C69        34.5783   27.2496    6.0111 C.3       12 UNK        -0.0954 
     70 S70        34.3490   25.6358    6.8224 S.3       12 UNK        -0.2268 
     71 C71        33.8451   24.6004    5.4055 C.3       12 UNK         0.0203 
     72 H72        28.2520   26.8721   -6.0850 H         1 UNK         0.0888 
     73 H73        28.4605   28.4980   -5.4275 H         1 UNK         0.0888 
     74 H74        29.8351   27.3945   -5.5046 H         1 UNK         0.0888 
     75 H75        30.3225   26.4451   -3.5392 H         1 UNK         0.3017 
     76 H76        28.5108   26.5768   -1.2968 H         1 UNK         0.0873 
     77 H77        31.0920   24.9491   -1.1875 H         1 UNK         0.0745 
     78 H78        31.2361   26.6544   -1.4310 H         1 UNK         0.0745 
     79 H79        29.7775   24.0017    1.3341 H         1 UNK         0.0705 
     80 H80        31.4923   24.1592    1.0120 H         1 UNK         0.0705 
     81 H81        33.0019   24.3811    2.8424 H         1 UNK         0.1334 
     82 H82        31.5676   25.4537    6.7404 H         1 UNK         0.1417 
     83 H83        28.8603   25.2424    3.4233 H         1 UNK         0.1562 
     84 H84        29.3850   26.8027    6.7015 H         1 UNK         0.0748 
     85 H85        28.8053   25.1635    6.8638 H         1 UNK         0.0748 
     86 H86        28.8657   28.1973    4.5954 H         1 UNK         0.0940 
     87 H87        27.2482   28.7752    4.8657 H         1 UNK         0.0940 
     88 H88        28.1688   27.0545    2.5074 H         1 UNK         0.0703 
     89 H89        25.4637   27.6334    3.4129 H         1 UNK         0.3081 
     90 H90        23.7510   26.5409    2.6110 H         1 UNK         0.0719 
     91 H91        23.8852   26.8370   -0.4466 H         1 UNK         0.0809 
     92 H92        22.4080   26.7911    0.5154 H         1 UNK         0.0809 
     93 H93        23.5352   28.1258    0.6965 H         1 UNK         0.0809 
     94 H94        24.1405   24.5514    0.4564 H         1 UNK         0.2990 
     95 H95        24.9603   21.9346    2.6462 H         1 UNK         0.0690 
     96 H96        23.1675   20.7057    1.4336 H         1 UNK         0.0788 
     97 H97        22.4125   22.2274    0.9563 H         1 UNK         0.0788 
     98 H98        22.4682   21.7605    2.6503 H         1 UNK         0.0788 
     99 H99        24.6046   22.1751   -0.2085 H         1 UNK         0.2993 
    100 H100       27.6896   22.1363   -1.0750 H         1 UNK         0.0949 
    101 H101       25.1076   23.5637   -1.9672 H         1 UNK         0.0767 
    102 H102       26.3248   22.8963   -3.0436 H         1 UNK         0.0767 
    103 H103       25.3941   21.8205   -2.0291 H         1 UNK         0.0767 
    104 H104       27.3323   24.9183   -0.3525 H         1 UNK         0.3013 
    105 H105       26.9793   28.2520    0.4806 H         1 UNK         0.3121 
    106 H106       26.8715   31.0796    0.4880 H         1 UNK         0.0774 
    107 H107       26.9413   29.1070   -1.8583 H         1 UNK         0.0815 
    108 H108       26.4357   30.7873   -1.9593 H         1 UNK         0.0815 
    109 H109       25.4978   29.6513   -1.0045 H         1 UNK         0.0815 
    110 H110       29.5643   28.9547   -0.2824 H         1 UNK         0.2987 
    111 H111       31.2790   31.3214   -0.8801 H         1 UNK         0.0949 
    112 H112       31.2965   28.6993   -2.4665 H         1 UNK         0.0806 
    113 H113       30.6960   30.2440   -3.0585 H         1 UNK         0.0806 
    114 H114       32.3987   30.0504   -2.6831 H         1 UNK         0.0806 
    115 H115       30.7328   29.8323    1.5687 H         1 UNK         0.3010 
    116 H116       32.9427   28.0612    2.1194 H         1 UNK         0.0829 
    117 H117       31.9923   28.0962    4.4153 H         1 UNK         0.0813 
    118 H118       30.9632   29.4585    4.0008 H         1 UNK         0.0813 
    119 H119       30.7273   27.8873    3.2313 H         1 UNK         0.0813 
    120 H120       32.4738   31.5196    2.3793 H         1 UNK         0.3038 
    121 H121       33.6666   33.2596    3.0814 H         1 UNK         0.0769 
    122 H122       36.0910   31.4608    2.4956 H         1 UNK         0.0811 
    123 H123       36.1331   33.2161    2.6781 H         1 UNK         0.0811 
    124 H124       35.2566   32.4924    1.3464 H         1 UNK         0.0811 
    125 H125       36.4349   31.9578    4.4908 H         1 UNK         0.3204 
    126 H126       35.7956   32.7410    7.1473 H         1 UNK         0.0748 
    127 H127       38.0045   31.6957    7.6859 H         1 UNK         0.0771 
    128 H128       38.0578   30.9560    6.0919 H         1 UNK         0.0771 
    129 H129       38.1151   32.7119    6.2596 H         1 UNK         0.0771 
    130 H130       35.1602   29.7239    5.4775 H         1 UNK         0.2980 
    131 H131       34.7383   28.1938    7.9298 H         1 UNK         0.0545 
    132 H132       32.8419   30.6370    6.3826 H         1 UNK         0.3459 
    133 H133       31.3108   30.0794    7.0089 H         1 UNK         0.3459 
    134 H134       35.6071   27.2625    5.6473 H         1 UNK         0.0616 
    135 H135       33.9545   27.3103    5.1205 H         1 UNK         0.0616 
    136 H136       34.5883   24.7195    4.6153 H         1 UNK         0.0634 
    137 H137       33.8907   23.5558    5.7150 H         1 UNK         0.0634 
@<TRIPOS>BOND
     1    1    2 1    
     2    1   72 1    
     3    1   73 1    
     4    1   74 1    
     5    2    3 2    
     6    2    4 am   BACKBONE|DICT|INTERRES
     7    4    5 1    
     8    4   75 1    
     9    5    6 1    
    10    5   35 1    
    11    5   76 1    
    12    6    7 1    
    13    6   77 1    
    14    6   78 1    
    15    7    8 1    
    16    8    9 1    
    17    8   79 1    
    18    8   80 1    
    19    9   10 ar   
    20    9   14 ar   
    21   10   11 ar   
    22   10   81 1    
    23   11   12 ar   
    24   11   71 1    
    25   12   13 ar   
    26   12   82 1    
    27   13   14 ar   
    28   13   15 1    
    29   14   83 1    
    30   15   16 1    
    31   15   84 1    
    32   15   85 1    
    33   16   17 1    
    34   17   18 1    
    35   17   86 1    
    36   17   87 1    
    37   18   19 1    
    38   18   37 1    
    39   18   88 1    
    40   19   20 am   BACKBONE|DICT|INTERRES
    41   19   89 1    
    42   20   21 2    
    43   20   22 1    
    44   22   23 1    
    45   22   24 1    
    46   22   90 1    
    47   23   91 1    
    48   23   92 1    
    49   23   93 1    
    50   24   25 am   BACKBONE|DICT|INTERRES
    51   24   94 1    
    52   25   26 2    
    53   25   27 1    
    54   27   28 1    
    55   27   29 1    
    56   27   95 1    
    57   28   96 1    
    58   28   97 1    
    59   28   98 1    
    60   29   30 am   BACKBONE|DICT|INTERRES
    61   29   99 1    
    62   30   31 2    
    63   30   32 1    
    64   32   33 1    
    65   32   34 1    
    66   32  100 1    
    67   33  101 1    
    68   33  102 1    
    69   33  103 1    
    70   34   35 am   BACKBONE|DICT|INTERRES
    71   34  104 1    
    72   35   36 2    
    73   37   38 2    
    74   37   39 am   BACKBONE|DICT|INTERRES
    75   39   40 1    
    76   39  105 1    
    77   40   41 1    
    78   40   42 1    
    79   40  106 1    
    80   41  107 1    
    81   41  108 1    
    82   41  109 1    
    83   42   43 2    
    84   42   44 am   BACKBONE|DICT|INTERRES
    85   44   45 1    
    86   44  110 1    
    87   45   46 1    
    88   45   47 1    
    89   45  111 1    
    90   46  112 1    
    91   46  113 1    
    92   46  114 1    
    93   47   48 2    
    94   47   49 am   BACKBONE|DICT|INTERRES
    95   49   50 1    
    96   49  115 1    
    97   50   51 1    
    98   50   52 1    
    99   50  116 1    
   100   51  117 1    
   101   51  118 1    
   102   51  119 1    
   103   52   53 2    
   104   52   54 am   BACKBONE|DICT|INTERRES
   105   54   55 1    
   106   54  120 1    
   107   55   56 1    
   108   55   57 1    
   109   55  121 1    
   110   56  122 1    
   111   56  123 1    
   112   56  124 1    
   113   57   58 2    
   114   57   59 am   BACKBONE|DICT|INTERRES
   115   59   60 1    
   116   59  125 1    
   117   60   61 1    
   118   60   62 1    
   119   60  126 1    
   120   61  127 1    
   121   61  128 1    
   122   61  129 1    
   123   62   63 2    
   124   62   64 am   BACKBONE|DICT|INTERRES
   125   64   65 1    
   126   64  130 1    
   127   65   66 1    
   128   65   69 1    
   129   65  131 1    
   130   66   67 am   BACKBONE|DICT|INTERRES
   131   66   68 2    
   132   67  132 1    
   133   67  133 1    
   134   69   70 1    
   135   69  134 1    
   136   69  135 1    
   137   70   71 1    
   138   71  136 1    
   139   71  137 1    
@<TRIPOS>SUBSTRUCTURE
     1 UNK         1 GROUP             0       ****    0 ROOT    
