@<TRIPOS>MOLECULE
3R136
137   139    1
SMALL
USER_CHARGES


@<TRIPOS>ATOM
      1 CA         29.7946   20.3141   -2.5505 C.3       0 UNK        -0.1979 
      2 C          29.9422   20.4865   -1.0410 C.2       0 UNK         0.4864 
      3 O          29.7631   19.5193   -0.3031 O.2       0 UNK        -0.5359 
      4 N          30.2597   21.6855   -0.5307 N.am      1 UNK        -0.4318 
      5 CA         30.4784   22.9383   -1.2684 C.3       1 UNK         0.0824 
      6 C6         31.5099   23.8387   -0.5397 C.3       12 UNK        -0.0944 
      7 S7         30.8988   24.5136    1.0381 S.3       12 UNK        -0.2672 
      8 C8         32.0377   23.8305    2.2785 C.3       12 UNK         0.0333 
      9 C9         31.5956   24.3363    3.6393 C.ar      12 UNK        -0.0807 
     10 C10        32.1980   25.4539    4.2224 C.ar      12 UNK        -0.0894 
     11 C11        31.6620   26.0269    5.3798 C.ar      12 UNK        -0.0804 
     12 C12        30.5337   25.4527    5.9748 C.ar      12 UNK        -0.0824 
     13 C13        29.9261   24.3345    5.3934 C.ar      12 UNK        -0.0762 
     14 C14        30.4821   23.7604    4.2494 C.ar      12 UNK        -0.0782 
     15 C15        28.6023   23.8068    5.9182 C.3       12 UNK         0.0230 
     16 S16        27.2110   24.8972    5.4595 S.3       12 UNK        -0.2608 
     17 C17        27.4834   25.2792    3.6817 C.3       12 UNK        -0.0989 
     18 CA         28.1468   26.6659    3.4367 C.3       5 UNK         0.0716 
     19 N          28.4393   26.9163    2.0208 N.am      5 UNK        -0.4135 
     20 C          29.2747   27.8741    1.5784 C.2       4 UNK         0.5031 
     21 O          30.0406   28.5008    2.3103 O.2       4 UNK        -0.5229 
     22 CA         29.2321   28.2618    0.0845 C.3       4 UNK         0.0329 
     23 CB         30.5120   27.8546   -0.6564 C.3       4 UNK        -0.2001 
     24 N          28.0666   27.7497   -0.6349 N.am      4 UNK        -0.4303 
     25 C          26.8091   28.1604   -0.4219 C.2       3 UNK         0.5044 
     26 O          26.5160   29.0716    0.3530 O.2       3 UNK        -0.5152 
     27 CA         25.6828   27.3969   -1.1419 C.3       3 UNK         0.0319 
     28 CB         25.2115   28.1834   -2.3748 C.3       3 UNK        -0.2001 
     29 N          26.0168   26.0229   -1.5428 N.am      3 UNK        -0.4354 
     30 C          26.4384   25.0413   -0.7308 C.2       2 UNK         0.4964 
     31 O          26.6597   25.2011    0.4711 O.2       2 UNK        -0.5047 
     32 CA         26.6491   23.6456   -1.3475 C.3       2 UNK         0.0288 
     33 CB         26.2478   23.5320   -2.8376 C.3       2 UNK        -0.2113 
     34 N          28.0159   23.1558   -1.1369 N.am      2 UNK        -0.4145 
     35 C          29.1596   23.6850   -1.6041 C.2       1 UNK         0.5006 
     36 O          29.2070   24.7112   -2.2854 O.2       1 UNK        -0.5103 
     37 C          27.2899   27.8147    4.0041 C.2       5 UNK         0.5055 
     38 O          27.6671   28.4178    5.0087 O.2       5 UNK        -0.5220 
     39 N          26.1622   28.1053    3.3368 N.am      6 UNK        -0.4450 
     40 CA         25.1898   29.1276    3.7350 C.3       6 UNK         0.0367 
     41 CB         23.9378   29.0219    2.8491 C.3       6 UNK        -0.1929 
     42 C          25.7661   30.5514    3.6983 C.2       6 UNK         0.5070 
     43 O          25.5104   31.3344    4.6133 O.2       6 UNK        -0.5237 
     44 N          26.5583   30.8489    2.6603 N.am      7 UNK        -0.4739 
     45 CA         27.2981   32.1063    2.5236 C.3       7 UNK         0.0276 
     46 CB         27.6747   32.2992    1.0451 C.3       7 UNK        -0.1927 
     47 C          28.5582   32.1716    3.4084 C.2       7 UNK         0.5013 
     48 O          29.0997   33.2615    3.5913 O.2       7 UNK        -0.5193 
     49 N          29.0283   31.0091    3.8896 N.am      8 UNK        -0.4253 
     50 CA         30.2710   30.7566    4.6367 C.3       8 UNK         0.0242 
     51 CB         30.2518   31.4690    6.0041 C.3       8 UNK        -0.2000 
     52 C          31.5631   31.0524    3.8450 C.2       8 UNK         0.4948 
     53 O          32.6480   31.0278    4.4266 O.2       8 UNK        -0.5275 
     54 N          31.4370   31.2990    2.5335 N.am      9 UNK        -0.4246 
     55 CA         32.4970   31.7234    1.6168 C.3       9 UNK         0.0261 
     56 CB         31.8660   32.0557    0.2543 C.3       9 UNK        -0.1959 
     57 C          33.6392   30.7096    1.4439 C.2       9 UNK         0.5033 
     58 O          34.7512   31.1143    1.1019 O.2       9 UNK        -0.5390 
     59 N          33.3531   29.4223    1.6759 N.am      10 UNK        -0.4215 
     60 CA         34.3394   28.3423    1.6252 C.3       10 UNK         0.0240 
     61 CB         33.6353   27.0339    1.2294 C.3       10 UNK        -0.1982 
     62 C          35.1619   28.1916    2.9215 C.2       10 UNK         0.4970 
     63 O          36.1481   27.4536    2.9025 O.2       10 UNK        -0.4916 
     64 N          34.7716   28.8759    4.0058 N.am      11 UNK        -0.4279 
     65 CA         35.5172   28.9341    5.2730 C.3       11 UNK         0.1003 
     66 C          36.3576   30.2362    5.3718 C.2       11 UNK         0.5709 
     67 N          37.3275   30.2748    6.2760 N.am      11 UNK        -0.7358 
     68 O          36.1448   31.2126    4.6551 O.2       11 UNK        -0.4999 
     69 C69        34.5770   28.7684    6.4975 C.3       12 UNK        -0.0954 
     70 S70        33.9058   27.0769    6.6080 S.3       12 UNK        -0.2268 
     71 C71        32.2466   27.3244    5.9138 C.3       12 UNK         0.0203 
     72 H72        29.4372   19.3119   -2.7864 H         1 UNK         0.0888 
     73 H73        29.0788   21.0231   -2.9648 H         1 UNK         0.0888 
     74 H74        30.7543   20.4488   -3.0486 H         1 UNK         0.0888 
     75 H75        30.3528   21.7691    0.4717 H         1 UNK         0.3017 
     76 H76        30.9265   22.6922   -2.2324 H         1 UNK         0.0873 
     77 H77        31.7931   24.6773   -1.1783 H         1 UNK         0.0745 
     78 H78        32.4327   23.2832   -0.3650 H         1 UNK         0.0745 
     79 H79        33.0612   24.1362    2.0590 H         1 UNK         0.0705 
     80 H80        32.0144   22.7402    2.2500 H         1 UNK         0.0705 
     81 H81        33.0553   25.9137    3.7538 H         1 UNK         0.1334 
     82 H82        30.0852   25.9139    6.8442 H         1 UNK         0.1417 
     83 H83        29.9926   22.9201    3.7760 H         1 UNK         0.1562 
     84 H84        28.6457   23.7195    7.0047 H         1 UNK         0.0748 
     85 H85        28.4067   22.8030    5.5377 H         1 UNK         0.0748 
     86 H86        26.5146   25.2288    3.1819 H         1 UNK         0.0940 
     87 H87        28.0778   24.4905    3.2212 H         1 UNK         0.0940 
     88 H88        29.1005   26.6799    3.9652 H         1 UNK         0.0703 
     89 H89        27.8757   26.4017    1.3497 H         1 UNK         0.3081 
     90 H90        29.1789   29.3514    0.0548 H         1 UNK         0.0719 
     91 H91        30.5197   28.2440   -1.6744 H         1 UNK         0.0809 
     92 H92        31.3936   28.2527   -0.1561 H         1 UNK         0.0809 
     93 H93        30.6192   26.7733   -0.7153 H         1 UNK         0.0809 
     94 H94        28.2226   26.9798   -1.2721 H         1 UNK         0.2990 
     95 H95        24.8484   27.3322   -0.4407 H         1 UNK         0.0690 
     96 H96        25.9928   28.2509   -3.1330 H         1 UNK         0.0788 
     97 H97        24.9307   29.2026   -2.1045 H         1 UNK         0.0788 
     98 H98        24.3369   27.7204   -2.8320 H         1 UNK         0.0788 
     99 H99        25.8841   25.7970   -2.5182 H         1 UNK         0.2993 
    100 H100       25.9965   22.9768   -0.7842 H         1 UNK         0.0949 
    101 H101       26.8469   24.1768   -3.4816 H         1 UNK         0.0767 
    102 H102       26.3716   22.5096   -3.1953 H         1 UNK         0.0767 
    103 H103       25.1987   23.7918   -2.9863 H         1 UNK         0.0767 
    104 H104       28.0968   22.3478   -0.5360 H         1 UNK         0.3013 
    105 H105       25.9532   27.5906    2.4939 H         1 UNK         0.3121 
    106 H106       24.8962   28.9183    4.7659 H         1 UNK         0.0774 
    107 H107       23.1891   29.7578    3.1456 H         1 UNK         0.0815 
    108 H108       24.1678   29.1984    1.7976 H         1 UNK         0.0815 
    109 H109       23.4738   28.0390    2.9317 H         1 UNK         0.0815 
    110 H110       26.6521   30.1682    1.9088 H         1 UNK         0.2987 
    111 H111       26.6469   32.9311    2.8220 H         1 UNK         0.0949 
    112 H112       28.3277   31.5040    0.6859 H         1 UNK         0.0806 
    113 H113       26.7887   32.3138    0.4099 H         1 UNK         0.0806 
    114 H114       28.1968   33.2450    0.8931 H         1 UNK         0.0806 
    115 H115       28.4855   30.1776    3.6957 H         1 UNK         0.3010 
    116 H116       30.2823   29.6825    4.8281 H         1 UNK         0.0829 
    117 H117       31.1026   31.1652    6.6153 H         1 UNK         0.0813 
    118 H118       30.3000   32.5529    5.8977 H         1 UNK         0.0813 
    119 H119       29.3490   31.2245    6.5638 H         1 UNK         0.0813 
    120 H120       30.5064   31.2409    2.1496 H         1 UNK         0.3038 
    121 H121       32.9350   32.6357    2.0268 H         1 UNK         0.0769 
    122 H122       31.3850   31.1840   -0.1916 H         1 UNK         0.0811 
    123 H123       32.6211   32.4070   -0.4505 H         1 UNK         0.0811 
    124 H124       31.1185   32.8444    0.3437 H         1 UNK         0.0811 
    125 H125       32.4114   29.1813    1.9594 H         1 UNK         0.3204 
    126 H126       35.0644   28.5640    0.8388 H         1 UNK         0.0748 
    127 H127       34.2663   26.1637    1.4144 H         1 UNK         0.0771 
    128 H128       32.7009   26.8948    1.7719 H         1 UNK         0.0771 
    129 H129       33.3981   27.0265    0.1659 H         1 UNK         0.0771 
    130 H130       34.0075   29.5384    3.9318 H         1 UNK         0.2980 
    131 H131       36.2367   28.1135    5.3026 H         1 UNK         0.0545 
    132 H132       37.8836   31.1113    6.3608 H         1 UNK         0.3459 
    133 H133       37.5172   29.4847    6.8730 H         1 UNK         0.3459 
    134 H134       35.1169   28.9511    7.4281 H         1 UNK         0.0616 
    135 H135       33.7654   29.4980    6.4724 H         1 UNK         0.0616 
    136 H136       32.2922   28.0437    5.0951 H         1 UNK         0.0634 
    137 H137       31.6017   27.7651    6.6756 H         1 UNK         0.0634 
@<TRIPOS>BOND
     1    1    2 1    
     2    1   72 1    
     3    1   73 1    
     4    1   74 1    
     5    2    3 2    
     6    2    4 am   BACKBONE|DICT|INTERRES
     7    4    5 1    
     8    4   75 1    
     9    5    6 1    
    10    5   35 1    
    11    5   76 1    
    12    6    7 1    
    13    6   77 1    
    14    6   78 1    
    15    7    8 1    
    16    8    9 1    
    17    8   79 1    
    18    8   80 1    
    19    9   10 ar   
    20    9   14 ar   
    21   10   11 ar   
    22   10   81 1    
    23   11   12 ar   
    24   11   71 1    
    25   12   13 ar   
    26   12   82 1    
    27   13   14 ar   
    28   13   15 1    
    29   14   83 1    
    30   15   16 1    
    31   15   84 1    
    32   15   85 1    
    33   16   17 1    
    34   17   18 1    
    35   17   86 1    
    36   17   87 1    
    37   18   19 1    
    38   18   37 1    
    39   18   88 1    
    40   19   20 am   BACKBONE|DICT|INTERRES
    41   19   89 1    
    42   20   21 2    
    43   20   22 1    
    44   22   23 1    
    45   22   24 1    
    46   22   90 1    
    47   23   91 1    
    48   23   92 1    
    49   23   93 1    
    50   24   25 am   BACKBONE|DICT|INTERRES
    51   24   94 1    
    52   25   26 2    
    53   25   27 1    
    54   27   28 1    
    55   27   29 1    
    56   27   95 1    
    57   28   96 1    
    58   28   97 1    
    59   28   98 1    
    60   29   30 am   BACKBONE|DICT|INTERRES
    61   29   99 1    
    62   30   31 2    
    63   30   32 1    
    64   32   33 1    
    65   32   34 1    
    66   32  100 1    
    67   33  101 1    
    68   33  102 1    
    69   33  103 1    
    70   34   35 am   BACKBONE|DICT|INTERRES
    71   34  104 1    
    72   35   36 2    
    73   37   38 2    
    74   37   39 am   BACKBONE|DICT|INTERRES
    75   39   40 1    
    76   39  105 1    
    77   40   41 1    
    78   40   42 1    
    79   40  106 1    
    80   41  107 1    
    81   41  108 1    
    82   41  109 1    
    83   42   43 2    
    84   42   44 am   BACKBONE|DICT|INTERRES
    85   44   45 1    
    86   44  110 1    
    87   45   46 1    
    88   45   47 1    
    89   45  111 1    
    90   46  112 1    
    91   46  113 1    
    92   46  114 1    
    93   47   48 2    
    94   47   49 am   BACKBONE|DICT|INTERRES
    95   49   50 1    
    96   49  115 1    
    97   50   51 1    
    98   50   52 1    
    99   50  116 1    
   100   51  117 1    
   101   51  118 1    
   102   51  119 1    
   103   52   53 2    
   104   52   54 am   BACKBONE|DICT|INTERRES
   105   54   55 1    
   106   54  120 1    
   107   55   56 1    
   108   55   57 1    
   109   55  121 1    
   110   56  122 1    
   111   56  123 1    
   112   56  124 1    
   113   57   58 2    
   114   57   59 am   BACKBONE|DICT|INTERRES
   115   59   60 1    
   116   59  125 1    
   117   60   61 1    
   118   60   62 1    
   119   60  126 1    
   120   61  127 1    
   121   61  128 1    
   122   61  129 1    
   123   62   63 2    
   124   62   64 am   BACKBONE|DICT|INTERRES
   125   64   65 1    
   126   64  130 1    
   127   65   66 1    
   128   65   69 1    
   129   65  131 1    
   130   66   67 am   BACKBONE|DICT|INTERRES
   131   66   68 2    
   132   67  132 1    
   133   67  133 1    
   134   69   70 1    
   135   69  134 1    
   136   69  135 1    
   137   70   71 1    
   138   71  136 1    
   139   71  137 1    
@<TRIPOS>SUBSTRUCTURE
     1 UNK         1 GROUP             0       ****    0 ROOT    
