@<TRIPOS>MOLECULE
3R136
137   139    1
SMALL
USER_CHARGES


@<TRIPOS>ATOM
      1 CA         27.3499   26.4891    3.3924 C.3       0 UNK        -0.1979 
      2 C          27.7329   25.3024    2.5218 C.2       0 UNK         0.4864 
      3 O          28.0631   25.4970    1.3514 O.2       0 UNK        -0.5359 
      4 N          27.6925   24.0858    3.0901 N.am      1 UNK        -0.4318 
      5 CA         28.0479   22.8003    2.4660 C.3       1 UNK         0.0824 
      6 C6         29.5700   22.6503    2.1975 C.3       12 UNK        -0.0944 
      7 S7         30.5448   22.5377    3.7400 S.3       12 UNK        -0.2672 
      8 C8         31.1069   24.2478    4.0209 C.3       12 UNK         0.0333 
      9 C9         32.1331   24.6997    2.9936 C.ar      12 UNK        -0.0807 
     10 C10        33.4864   24.3920    3.1588 C.ar      12 UNK        -0.0894 
     11 C11        34.4309   24.8195    2.2191 C.ar      12 UNK        -0.0804 
     12 C12        34.0108   25.5679    1.1133 C.ar      12 UNK        -0.0824 
     13 C13        32.6557   25.8621    0.9281 C.ar      12 UNK        -0.0762 
     14 C14        31.7258   25.4255    1.8732 C.ar      12 UNK        -0.0782 
     15 C15        32.1814   26.5748   -0.3303 C.3       12 UNK         0.0230 
     16 S16        32.0131   28.3792   -0.1367 S.3       12 UNK        -0.2608 
     17 C17        30.5026   28.5922    0.8709 C.3       12 UNK        -0.0989 
     18 CA         29.2026   28.7098    0.0302 C.3       5 UNK         0.0716 
     19 N          28.8520   27.4354   -0.5925 N.am      5 UNK        -0.4135 
     20 C          28.8348   27.1566   -1.8993 C.2       4 UNK         0.5031 
     21 O          29.2582   27.9062   -2.7802 O.2       4 UNK        -0.5229 
     22 CA         28.2011   25.8080   -2.2840 C.3       4 UNK         0.0329 
     23 CB         29.2049   24.6562   -2.1156 C.3       4 UNK        -0.2001 
     24 N          27.0093   25.5359   -1.4774 N.am      4 UNK        -0.4303 
     25 C          25.8329   26.1585   -1.6403 C.2       3 UNK         0.5044 
     26 O          25.5902   26.9110   -2.5863 O.2       3 UNK        -0.5152 
     27 CA         24.7588   25.9223   -0.5577 C.3       3 UNK         0.0319 
     28 CB         23.3272   26.2168   -1.0558 C.3       3 UNK        -0.2001 
     29 N          24.8309   24.6005    0.0766 N.am      3 UNK        -0.4354 
     30 C          24.6734   23.4022   -0.5079 C.2       2 UNK         0.4964 
     31 O          24.4206   23.2433   -1.7033 O.2       2 UNK        -0.5047 
     32 CA         24.8247   22.1795    0.4211 C.3       2 UNK         0.0288 
     33 CB         25.0136   20.8529   -0.3477 C.3       2 UNK        -0.2113 
     34 N          25.8762   22.3602    1.4343 N.am      2 UNK        -0.4145 
     35 C          27.1890   22.5354    1.2106 C.2       1 UNK         0.5006 
     36 O          27.7037   22.5393    0.0908 O.2       1 UNK        -0.5103 
     37 C          27.9715   29.1560    0.8565 C.2       5 UNK         0.5055 
     38 O          26.8681   28.6486    0.6306 O.2       5 UNK        -0.5220 
     39 N          28.1473   30.0987    1.7897 N.am      6 UNK        -0.4450 
     40 CA         27.0945   30.5763    2.6875 C.3       6 UNK         0.0367 
     41 CB         26.4818   31.8714    2.1127 C.3       6 UNK        -0.1929 
     42 C          27.6866   30.7288    4.0964 C.2       6 UNK         0.5070 
     43 O          28.5272   29.9185    4.4879 O.2       6 UNK        -0.5237 
     44 N          27.2691   31.7677    4.8333 N.am      7 UNK        -0.4739 
     45 CA         27.9083   32.1887    6.0867 C.3       7 UNK         0.0276 
     46 CB         26.9956   33.1883    6.8152 C.3       7 UNK        -0.1927 
     47 C          29.3044   32.7986    5.8505 C.2       7 UNK         0.5013 
     48 O          30.1580   32.7278    6.7353 O.2       7 UNK        -0.5193 
     49 N          29.5051   33.3649    4.6541 N.am      8 UNK        -0.4253 
     50 CA         30.7919   33.7937    4.1173 C.3       8 UNK         0.0242 
     51 CB         30.5853   35.0983    3.3294 C.3       8 UNK        -0.2000 
     52 C          31.3541   32.6987    3.1974 C.2       8 UNK         0.4948 
     53 O          30.6043   31.8391    2.7231 O.2       8 UNK        -0.5275 
     54 N          32.6697   32.7622    2.9557 N.am      9 UNK        -0.4246 
     55 CA         33.4861   31.9096    2.0761 C.3       9 UNK         0.0261 
     56 CB         32.9886   31.9695    0.6173 C.3       9 UNK        -0.1959 
     57 C          33.6724   30.4502    2.5372 C.2       9 UNK         0.5033 
     58 O          34.6939   29.8552    2.1899 O.2       9 UNK        -0.5390 
     59 N          32.7194   29.9011    3.3025 N.am      10 UNK        -0.4215 
     60 CA         32.7498   28.5429    3.8480 C.3       10 UNK         0.0240 
     61 CB         31.4195   28.2416    4.5562 C.3       10 UNK        -0.1982 
     62 C          33.9251   28.3276    4.8132 C.2       10 UNK         0.4970 
     63 O          34.2142   29.2037    5.6324 O.2       10 UNK        -0.4916 
     64 N          34.5638   27.1602    4.6999 N.am      11 UNK        -0.4279 
     65 CA         35.7030   26.7397    5.5243 C.3       11 UNK         0.1003 
     66 C          35.3167   26.5158    7.0118 C.2       11 UNK         0.5709 
     67 N          36.2173   26.8136    7.9385 N.am      11 UNK        -0.7358 
     68 O          34.2297   26.0350    7.3283 O.2       11 UNK        -0.4999 
     69 C69        36.3907   25.4783    4.9425 C.3       12 UNK        -0.0954 
     70 S70        36.8965   25.6861    3.2001 S.3       12 UNK        -0.2268 
     71 C71        35.8943   24.4193    2.3603 C.3       12 UNK         0.0203 
     72 H72        28.1829   27.1884    3.4607 H         1 UNK         0.0888 
     73 H73        26.5018   27.0151    2.9549 H         1 UNK         0.0888 
     74 H74        27.0784   26.1865    4.4034 H         1 UNK         0.0888 
     75 H75        27.4037   24.0162    4.0560 H         1 UNK         0.3017 
     76 H76        27.7707   22.0236    3.1810 H         1 UNK         0.0873 
     77 H77        29.7632   21.7272    1.6479 H         1 UNK         0.0745 
     78 H78        29.9365   23.4497    1.5564 H         1 UNK         0.0745 
     79 H79        31.5449   24.3094    5.0184 H         1 UNK         0.0705 
     80 H80        30.2510   24.9224    4.0308 H         1 UNK         0.0705 
     81 H81        33.7971   23.8020    4.0101 H         1 UNK         0.1334 
     82 H82        34.7352   25.8897    0.3773 H         1 UNK         0.1417 
     83 H83        30.6755   25.6278    1.7239 H         1 UNK         0.1562 
     84 H84        31.2372   26.1468   -0.6583 H         1 UNK         0.0748 
     85 H85        32.8847   26.3859   -1.1426 H         1 UNK         0.0748 
     86 H86        30.6711   29.5036    1.4424 H         1 UNK         0.0940 
     87 H87        30.4165   27.7979    1.6076 H         1 UNK         0.0940 
     88 H88        29.3473   29.4736   -0.7364 H         1 UNK         0.0703 
     89 H89        28.4377   26.7565    0.0445 H         1 UNK         0.3081 
     90 H90        27.9109   25.8577   -3.3356 H         1 UNK         0.0719 
     91 H91        30.1169   24.8432   -2.6840 H         1 UNK         0.0809 
     92 H92        29.4875   24.5150   -1.0713 H         1 UNK         0.0809 
     93 H93        28.7860   23.7149   -2.4718 H         1 UNK         0.0809 
     94 H94        27.1409   24.9533   -0.6587 H         1 UNK         0.2990 
     95 H95        24.9808   26.6414    0.2323 H         1 UNK         0.0690 
     96 H96        23.0530   25.5818   -1.8988 H         1 UNK         0.0788 
     97 H97        23.2331   27.2522   -1.3855 H         1 UNK         0.0788 
     98 H98        22.5921   26.0633   -0.2658 H         1 UNK         0.0788 
     99 H99        25.0509   24.6083    1.0621 H         1 UNK         0.2993 
    100 H100       23.8830   22.1055    0.9674 H         1 UNK         0.0949 
    101 H101       25.9012   20.8725   -0.9809 H         1 UNK         0.0767 
    102 H102       25.1066   20.0083    0.3350 H         1 UNK         0.0767 
    103 H103       24.1592   20.6518   -0.9951 H         1 UNK         0.0767 
    104 H104       25.5540   22.3896    2.3923 H         1 UNK         0.3013 
    105 H105       29.0717   30.4729    1.9821 H         1 UNK         0.3121 
    106 H106       26.3047   29.8273    2.7758 H         1 UNK         0.0774 
    107 H107       25.6307   32.2116    2.7035 H         1 UNK         0.0815 
    108 H108       27.2115   32.6811    2.0707 H         1 UNK         0.0815 
    109 H109       26.1127   31.7104    1.0996 H         1 UNK         0.0815 
    110 H110       26.5484   32.3701    4.4619 H         1 UNK         0.2987 
    111 H111       28.0361   31.3098    6.7230 H         1 UNK         0.0949 
    112 H112       26.0248   32.7471    7.0420 H         1 UNK         0.0806 
    113 H113       27.4378   33.4988    7.7630 H         1 UNK         0.0806 
    114 H114       26.8270   34.0893    6.2242 H         1 UNK         0.0806 
    115 H115       28.7531   33.3060    3.9845 H         1 UNK         0.3010 
    116 H116       31.4982   33.9739    4.9308 H         1 UNK         0.0829 
    117 H117       30.1673   35.8808    3.9630 H         1 UNK         0.0813 
    118 H118       31.5298   35.4747    2.9343 H         1 UNK         0.0813 
    119 H119       29.9115   34.9578    2.4829 H         1 UNK         0.0813 
    120 H120       33.1890   33.4931    3.4232 H         1 UNK         0.3038 
    121 H121       34.4824   32.3545    2.0929 H         1 UNK         0.0769 
    122 H122       33.6570   31.4157   -0.0435 H         1 UNK         0.0811 
    123 H123       31.9961   31.5335    0.5040 H         1 UNK         0.0811 
    124 H124       32.9485   32.9957    0.2526 H         1 UNK         0.0811 
    125 H125       31.8977   30.4616    3.4953 H         1 UNK         0.3204 
    126 H126       32.8593   27.8599    3.0043 H         1 UNK         0.0748 
    127 H127       31.4149   27.2318    4.9683 H         1 UNK         0.0771 
    128 H128       31.2375   28.9319    5.3811 H         1 UNK         0.0771 
    129 H129       30.5751   28.3141    3.8731 H         1 UNK         0.0771 
    130 H130       34.2633   26.4972    3.9995 H         1 UNK         0.2980 
    131 H131       36.4280   27.5556    5.4918 H         1 UNK         0.0545 
    132 H132       35.9902   26.6596    8.9085 H         1 UNK         0.3459 
    133 H133       37.1167   27.1951    7.6895 H         1 UNK         0.3459 
    134 H134       37.2903   25.2458    5.5152 H         1 UNK         0.0616 
    135 H135       35.7435   24.6060    5.0401 H         1 UNK         0.0616 
    136 H136       35.9832   23.4706    2.8920 H         1 UNK         0.0634 
    137 H137       36.3189   24.2462    1.3703 H         1 UNK         0.0634 
@<TRIPOS>BOND
     1    1    2 1    
     2    1   72 1    
     3    1   73 1    
     4    1   74 1    
     5    2    3 2    
     6    2    4 am   BACKBONE|DICT|INTERRES
     7    4    5 1    
     8    4   75 1    
     9    5    6 1    
    10    5   35 1    
    11    5   76 1    
    12    6    7 1    
    13    6   77 1    
    14    6   78 1    
    15    7    8 1    
    16    8    9 1    
    17    8   79 1    
    18    8   80 1    
    19    9   10 ar   
    20    9   14 ar   
    21   10   11 ar   
    22   10   81 1    
    23   11   12 ar   
    24   11   71 1    
    25   12   13 ar   
    26   12   82 1    
    27   13   14 ar   
    28   13   15 1    
    29   14   83 1    
    30   15   16 1    
    31   15   84 1    
    32   15   85 1    
    33   16   17 1    
    34   17   18 1    
    35   17   86 1    
    36   17   87 1    
    37   18   19 1    
    38   18   37 1    
    39   18   88 1    
    40   19   20 am   BACKBONE|DICT|INTERRES
    41   19   89 1    
    42   20   21 2    
    43   20   22 1    
    44   22   23 1    
    45   22   24 1    
    46   22   90 1    
    47   23   91 1    
    48   23   92 1    
    49   23   93 1    
    50   24   25 am   BACKBONE|DICT|INTERRES
    51   24   94 1    
    52   25   26 2    
    53   25   27 1    
    54   27   28 1    
    55   27   29 1    
    56   27   95 1    
    57   28   96 1    
    58   28   97 1    
    59   28   98 1    
    60   29   30 am   BACKBONE|DICT|INTERRES
    61   29   99 1    
    62   30   31 2    
    63   30   32 1    
    64   32   33 1    
    65   32   34 1    
    66   32  100 1    
    67   33  101 1    
    68   33  102 1    
    69   33  103 1    
    70   34   35 am   BACKBONE|DICT|INTERRES
    71   34  104 1    
    72   35   36 2    
    73   37   38 2    
    74   37   39 am   BACKBONE|DICT|INTERRES
    75   39   40 1    
    76   39  105 1    
    77   40   41 1    
    78   40   42 1    
    79   40  106 1    
    80   41  107 1    
    81   41  108 1    
    82   41  109 1    
    83   42   43 2    
    84   42   44 am   BACKBONE|DICT|INTERRES
    85   44   45 1    
    86   44  110 1    
    87   45   46 1    
    88   45   47 1    
    89   45  111 1    
    90   46  112 1    
    91   46  113 1    
    92   46  114 1    
    93   47   48 2    
    94   47   49 am   BACKBONE|DICT|INTERRES
    95   49   50 1    
    96   49  115 1    
    97   50   51 1    
    98   50   52 1    
    99   50  116 1    
   100   51  117 1    
   101   51  118 1    
   102   51  119 1    
   103   52   53 2    
   104   52   54 am   BACKBONE|DICT|INTERRES
   105   54   55 1    
   106   54  120 1    
   107   55   56 1    
   108   55   57 1    
   109   55  121 1    
   110   56  122 1    
   111   56  123 1    
   112   56  124 1    
   113   57   58 2    
   114   57   59 am   BACKBONE|DICT|INTERRES
   115   59   60 1    
   116   59  125 1    
   117   60   61 1    
   118   60   62 1    
   119   60  126 1    
   120   61  127 1    
   121   61  128 1    
   122   61  129 1    
   123   62   63 2    
   124   62   64 am   BACKBONE|DICT|INTERRES
   125   64   65 1    
   126   64  130 1    
   127   65   66 1    
   128   65   69 1    
   129   65  131 1    
   130   66   67 am   BACKBONE|DICT|INTERRES
   131   66   68 2    
   132   67  132 1    
   133   67  133 1    
   134   69   70 1    
   135   69  134 1    
   136   69  135 1    
   137   70   71 1    
   138   71  136 1    
   139   71  137 1    
@<TRIPOS>SUBSTRUCTURE
     1 UNK         1 GROUP             0       ****    0 ROOT    
