@<TRIPOS>MOLECULE
3R136
137   139    1
SMALL
USER_CHARGES


@<TRIPOS>ATOM
      1 CA         25.9862   21.3822   -0.3295 C.3       0 UNK        -0.1979 
      2 C          27.2202   21.8788   -1.0677 C.2       0 UNK         0.4864 
      3 O          27.0895   22.5834   -2.0696 O.2       0 UNK        -0.5359 
      4 N          28.4127   21.5084   -0.5856 N.am      1 UNK        -0.4318 
      5 CA         29.7091   21.9800   -1.0823 C.3       1 UNK         0.0824 
      6 C6         30.8435   20.9358   -0.8671 C.3       12 UNK        -0.0944 
      7 S7         30.8951   20.1179    0.7646 S.3       12 UNK        -0.2672 
      8 C8         31.8521   21.2956    1.7856 C.3       12 UNK         0.0333 
      9 C9         31.0346   22.1039    2.7975 C.ar      12 UNK        -0.0807 
     10 C10        31.6757   23.1225    3.5107 C.ar      12 UNK        -0.0894 
     11 C11        30.9869   23.8704    4.4710 C.ar      12 UNK        -0.0804 
     12 C12        29.6401   23.5967    4.7228 C.ar      12 UNK        -0.0824 
     13 C13        28.9812   22.5904    4.0127 C.ar      12 UNK        -0.0762 
     14 C14        29.6824   21.8461    3.0623 C.ar      12 UNK        -0.0782 
     15 C15        27.5107   22.2951    4.2597 C.3       12 UNK         0.0230 
     16 S16        26.4622   23.0864    2.9999 S.3       12 UNK        -0.2608 
     17 C17        26.4223   24.8115    3.5940 C.3       12 UNK        -0.0989 
     18 CA         27.4310   25.7558    2.8761 C.3       5 UNK         0.0716 
     19 N          27.3103   25.7444    1.4141 N.am      5 UNK        -0.4135 
     20 C          26.2451   26.0887    0.6788 C.2       4 UNK         0.5031 
     21 O          25.1700   26.4642    1.1503 O.2       4 UNK        -0.5229 
     22 CA         26.4599   26.0641   -0.8495 C.3       4 UNK         0.0329 
     23 CB         25.2640   26.6392   -1.6368 C.3       4 UNK        -0.2001 
     24 N          27.7082   26.7344   -1.2440 N.am      4 UNK        -0.4303 
     25 C          28.0871   27.9818   -0.9244 C.2       3 UNK         0.5044 
     26 O          27.3716   28.7650   -0.3029 O.2       3 UNK        -0.5152 
     27 CA         29.5236   28.3969   -1.3010 C.3       3 UNK         0.0319 
     28 CB         29.8994   29.7867   -0.7509 C.3       3 UNK        -0.2001 
     29 N          30.4962   27.4105   -0.8194 N.am      3 UNK        -0.4354 
     30 C          30.8068   26.2768   -1.4592 C.2       2 UNK         0.4964 
     31 O          30.3616   25.9938   -2.5740 O.2       2 UNK        -0.5047 
     32 CA         31.7201   25.2633   -0.7411 C.3       2 UNK         0.0288 
     33 CB         31.9390   25.5385    0.7651 C.3       2 UNK        -0.2113 
     34 N          31.2308   23.8966   -0.9567 N.am      2 UNK        -0.4145 
     35 C          30.0500   23.3953   -0.5588 C.2       1 UNK         0.5006 
     36 O          29.2481   24.0183    0.1458 O.2       1 UNK        -0.5103 
     37 C          27.4181   27.1651    3.5227 C.2       5 UNK         0.5055 
     38 O          27.4223   27.2369    4.7538 O.2       5 UNK        -0.5220 
     39 N          27.3899   28.2594    2.7431 N.am      6 UNK        -0.4450 
     40 CA         27.3282   29.6233    3.2774 C.3       6 UNK         0.0367 
     41 CB         26.8969   30.6100    2.1812 C.3       6 UNK        -0.1929 
     42 C          28.6652   30.0630    3.8933 C.2       6 UNK         0.5070 
     43 O          29.6981   30.0119    3.2216 O.2       6 UNK        -0.5237 
     44 N          28.6014   30.5350    5.1442 N.am      7 UNK        -0.4739 
     45 CA         29.7111   31.1715    5.8537 C.3       7 UNK         0.0276 
     46 CB         29.3641   31.2562    7.3489 C.3       7 UNK        -0.1927 
     47 C          30.0105   32.5696    5.2862 C.2       7 UNK         0.5013 
     48 O          29.1403   33.1791    4.6582 O.2       7 UNK        -0.5193 
     49 N          31.2418   33.0481    5.5087 N.am      8 UNK        -0.4253 
     50 CA         31.8341   34.3133    5.0417 C.3       8 UNK         0.0242 
     51 CB         31.0333   35.5432    5.5139 C.3       8 UNK        -0.2000 
     52 C          32.0935   34.3551    3.5243 C.2       8 UNK         0.4948 
     53 O          33.1624   34.8079    3.1134 O.2       8 UNK        -0.5275 
     54 N          31.1475   33.8460    2.7235 N.am      9 UNK        -0.4246 
     55 CA         31.3140   33.5578    1.2961 C.3       9 UNK         0.0261 
     56 CB         29.9483   33.2018    0.6876 C.3       9 UNK        -0.1959 
     57 C          32.3281   32.4246    1.0511 C.2       9 UNK         0.5033 
     58 O          33.0736   32.4753    0.0720 O.2       9 UNK        -0.5390 
     59 N          32.3533   31.4500    1.9657 N.am      10 UNK        -0.4215 
     60 CA         33.3227   30.3675    2.0719 C.3       10 UNK         0.0240 
     61 CB         32.9921   29.2545    1.0590 C.3       10 UNK        -0.1982 
     62 C          33.3206   29.8829    3.5321 C.2       10 UNK         0.4970 
     63 O          32.8708   30.6208    4.4142 O.2       10 UNK        -0.4916 
     64 N          33.8158   28.6600    3.7614 N.am      11 UNK        -0.4279 
     65 CA         33.8694   27.9839    5.0690 C.3       11 UNK         0.1003 
     66 C          34.7917   28.7154    6.0949 C.2       11 UNK         0.5709 
     67 N          34.6001   28.5218    7.3938 N.am      11 UNK        -0.7358 
     68 O          35.7296   29.4184    5.7212 O.2       11 UNK        -0.4999 
     69 C69        32.4516   27.6294    5.6159 C.3       12 UNK        -0.0954 
     70 S70        31.4872   26.5883    4.4670 S.3       12 UNK        -0.2268 
     71 C71        31.7010   24.9621    5.2502 C.3       12 UNK         0.0203 
     72 H72        25.3693   20.7752   -0.9914 H         1 UNK         0.0888 
     73 H73        26.2470   20.7806    0.5412 H         1 UNK         0.0888 
     74 H74        25.3914   22.2288    0.0131 H         1 UNK         0.0888 
     75 H75        28.4611   20.9376    0.2453 H         1 UNK         0.3017 
     76 H76        29.6135   22.1051   -2.1634 H         1 UNK         0.0873 
     77 H77        30.6974   20.1334   -1.5921 H         1 UNK         0.0745 
     78 H78        31.8308   21.3341   -1.1043 H         1 UNK         0.0745 
     79 H79        32.4056   21.9778    1.1390 H         1 UNK         0.0705 
     80 H80        32.6009   20.7249    2.3364 H         1 UNK         0.0705 
     81 H81        32.7202   23.3313    3.3229 H         1 UNK         0.1334 
     82 H82        29.1031   24.1770    5.4610 H         1 UNK         0.1417 
     83 H83        29.1532   21.0658    2.5372 H         1 UNK         0.1562 
     84 H84        27.2088   22.6124    5.2590 H         1 UNK         0.0748 
     85 H85        27.3454   21.2172    4.2246 H         1 UNK         0.0748 
     86 H86        26.5974   24.8065    4.6711 H         1 UNK         0.0940 
     87 H87        25.4037   25.1824    3.4700 H         1 UNK         0.0940 
     88 H88        28.4342   25.3749    3.0642 H         1 UNK         0.0703 
     89 H89        28.1138   25.3564    0.9241 H         1 UNK         0.3081 
     90 H90        26.5685   25.0157   -1.1267 H         1 UNK         0.0719 
     91 H91        25.0795   27.6845   -1.3862 H         1 UNK         0.0809 
     92 H92        25.4305   26.5758   -2.7120 H         1 UNK         0.0809 
     93 H93        24.3504   26.0854   -1.4173 H         1 UNK         0.0809 
     94 H94        28.3808   26.1618   -1.7418 H         1 UNK         0.2990 
     95 H95        29.5666   28.4517   -2.3909 H         1 UNK         0.0690 
     96 H96        30.8863   30.0961   -1.0933 H         1 UNK         0.0788 
     97 H97        29.8978   29.8059    0.3400 H         1 UNK         0.0788 
     98 H98        29.1937   30.5461   -1.0903 H         1 UNK         0.0788 
     99 H99        30.8593   27.5514    0.1115 H         1 UNK         0.2993 
    100 H100       32.6907   25.3268   -1.2355 H         1 UNK         0.0949 
    101 H101       31.0031   25.5951    1.3229 H         1 UNK         0.0767 
    102 H102       32.5401   24.7509    1.2181 H         1 UNK         0.0767 
    103 H103       32.4801   26.4683    0.9250 H         1 UNK         0.0767 
    104 H104       31.8003   23.3345   -1.5730 H         1 UNK         0.3013 
    105 H105       27.3912   28.1683    1.7336 H         1 UNK         0.3121 
    106 H106       26.5570   29.6409    4.0508 H         1 UNK         0.0774 
    107 H107       26.7477   31.6080    2.5953 H         1 UNK         0.0815 
    108 H108       27.6509   30.6977    1.3990 H         1 UNK         0.0815 
    109 H109       25.9603   30.3055    1.7138 H         1 UNK         0.0815 
    110 H110       27.7026   30.5657    5.6028 H         1 UNK         0.2987 
    111 H111       30.5971   30.5466    5.7310 H         1 UNK         0.0949 
    112 H112       28.4842   31.8766    7.5249 H         1 UNK         0.0806 
    113 H113       29.1686   30.2684    7.7670 H         1 UNK         0.0806 
    114 H114       30.1868   31.6892    7.9194 H         1 UNK         0.0806 
    115 H115       31.8946   32.4306    5.9743 H         1 UNK         0.3010 
    116 H116       32.8132   34.3641    5.5212 H         1 UNK         0.0829 
    117 H117       30.8880   35.5311    6.5940 H         1 UNK         0.0813 
    118 H118       31.5620   36.4651    5.2681 H         1 UNK         0.0813 
    119 H119       30.0516   35.6024    5.0435 H         1 UNK         0.0813 
    120 H120       30.2849   33.5400    3.1666 H         1 UNK         0.3038 
    121 H121       31.6899   34.4588    0.8068 H         1 UNK         0.0769 
    122 H122       30.0393   32.9931   -0.3792 H         1 UNK         0.0811 
    123 H123       29.2379   34.0212    0.7984 H         1 UNK         0.0811 
    124 H124       29.5167   32.3177    1.1587 H         1 UNK         0.0811 
    125 H125       31.7122   31.4937    2.7495 H         1 UNK         0.3204 
    126 H126       34.3171   30.7657    1.8614 H         1 UNK         0.0748 
    127 H127       33.7601   28.4812    1.0498 H         1 UNK         0.0771 
    128 H128       32.0370   28.7862    1.2970 H         1 UNK         0.0771 
    129 H129       32.9341   29.6447    0.0434 H         1 UNK         0.0771 
    130 H130       34.1933   28.1369    2.9865 H         1 UNK         0.2980 
    131 H131       34.3824   27.0409    4.8781 H         1 UNK         0.0545 
    132 H132       35.2136   28.9788    8.0501 H         1 UNK         0.3459 
    133 H133       33.8551   27.9336    7.7305 H         1 UNK         0.3459 
    134 H134       32.5194   27.1062    6.5702 H         1 UNK         0.0616 
    135 H135       31.8787   28.5354    5.8141 H         1 UNK         0.0616 
    136 H136       32.7658   24.7365    5.3267 H         1 UNK         0.0634 
    137 H137       31.3171   24.9984    6.2709 H         1 UNK         0.0634 
@<TRIPOS>BOND
     1    1    2 1    
     2    1   72 1    
     3    1   73 1    
     4    1   74 1    
     5    2    3 2    
     6    2    4 am   BACKBONE|DICT|INTERRES
     7    4    5 1    
     8    4   75 1    
     9    5    6 1    
    10    5   35 1    
    11    5   76 1    
    12    6    7 1    
    13    6   77 1    
    14    6   78 1    
    15    7    8 1    
    16    8    9 1    
    17    8   79 1    
    18    8   80 1    
    19    9   10 ar   
    20    9   14 ar   
    21   10   11 ar   
    22   10   81 1    
    23   11   12 ar   
    24   11   71 1    
    25   12   13 ar   
    26   12   82 1    
    27   13   14 ar   
    28   13   15 1    
    29   14   83 1    
    30   15   16 1    
    31   15   84 1    
    32   15   85 1    
    33   16   17 1    
    34   17   18 1    
    35   17   86 1    
    36   17   87 1    
    37   18   19 1    
    38   18   37 1    
    39   18   88 1    
    40   19   20 am   BACKBONE|DICT|INTERRES
    41   19   89 1    
    42   20   21 2    
    43   20   22 1    
    44   22   23 1    
    45   22   24 1    
    46   22   90 1    
    47   23   91 1    
    48   23   92 1    
    49   23   93 1    
    50   24   25 am   BACKBONE|DICT|INTERRES
    51   24   94 1    
    52   25   26 2    
    53   25   27 1    
    54   27   28 1    
    55   27   29 1    
    56   27   95 1    
    57   28   96 1    
    58   28   97 1    
    59   28   98 1    
    60   29   30 am   BACKBONE|DICT|INTERRES
    61   29   99 1    
    62   30   31 2    
    63   30   32 1    
    64   32   33 1    
    65   32   34 1    
    66   32  100 1    
    67   33  101 1    
    68   33  102 1    
    69   33  103 1    
    70   34   35 am   BACKBONE|DICT|INTERRES
    71   34  104 1    
    72   35   36 2    
    73   37   38 2    
    74   37   39 am   BACKBONE|DICT|INTERRES
    75   39   40 1    
    76   39  105 1    
    77   40   41 1    
    78   40   42 1    
    79   40  106 1    
    80   41  107 1    
    81   41  108 1    
    82   41  109 1    
    83   42   43 2    
    84   42   44 am   BACKBONE|DICT|INTERRES
    85   44   45 1    
    86   44  110 1    
    87   45   46 1    
    88   45   47 1    
    89   45  111 1    
    90   46  112 1    
    91   46  113 1    
    92   46  114 1    
    93   47   48 2    
    94   47   49 am   BACKBONE|DICT|INTERRES
    95   49   50 1    
    96   49  115 1    
    97   50   51 1    
    98   50   52 1    
    99   50  116 1    
   100   51  117 1    
   101   51  118 1    
   102   51  119 1    
   103   52   53 2    
   104   52   54 am   BACKBONE|DICT|INTERRES
   105   54   55 1    
   106   54  120 1    
   107   55   56 1    
   108   55   57 1    
   109   55  121 1    
   110   56  122 1    
   111   56  123 1    
   112   56  124 1    
   113   57   58 2    
   114   57   59 am   BACKBONE|DICT|INTERRES
   115   59   60 1    
   116   59  125 1    
   117   60   61 1    
   118   60   62 1    
   119   60  126 1    
   120   61  127 1    
   121   61  128 1    
   122   61  129 1    
   123   62   63 2    
   124   62   64 am   BACKBONE|DICT|INTERRES
   125   64   65 1    
   126   64  130 1    
   127   65   66 1    
   128   65   69 1    
   129   65  131 1    
   130   66   67 am   BACKBONE|DICT|INTERRES
   131   66   68 2    
   132   67  132 1    
   133   67  133 1    
   134   69   70 1    
   135   69  134 1    
   136   69  135 1    
   137   70   71 1    
   138   71  136 1    
   139   71  137 1    
@<TRIPOS>SUBSTRUCTURE
     1 UNK         1 GROUP             0       ****    0 ROOT    
