@<TRIPOS>MOLECULE
3R136
137   139    1
SMALL
USER_CHARGES


@<TRIPOS>ATOM
      1 CA         30.2774   22.1087   -3.5381 C.3       0 UNK        -0.1979 
      2 C          31.1209   21.9171   -2.2794 C.2       0 UNK         0.4864 
      3 O          32.0921   21.1635   -2.3212 O.2       0 UNK        -0.5359 
      4 N          30.8183   22.5720   -1.1483 N.am      1 UNK        -0.4318 
      5 CA         29.6625   23.4355   -0.8806 C.3       1 UNK         0.0824 
      6 C6         29.8043   24.2395    0.4462 C.3       12 UNK        -0.0944 
      7 S7         30.5109   23.2999    1.8486 S.3       12 UNK        -0.2672 
      8 C8         29.1087   23.1587    3.0060 C.3       12 UNK         0.0333 
      9 C9         28.7684   24.4618    3.7186 C.ar      12 UNK        -0.0807 
     10 C10        29.7518   25.1731    4.4148 C.ar      12 UNK        -0.0894 
     11 C11        29.4211   26.3256    5.1335 C.ar      12 UNK        -0.0804 
     12 C12        28.0982   26.7773    5.1386 C.ar      12 UNK        -0.0824 
     13 C13        27.1030   26.0728    4.4534 C.ar      12 UNK        -0.0762 
     14 C14        27.4453   24.9141    3.7484 C.ar      12 UNK        -0.0782 
     15 C15        25.6519   26.5379    4.5244 C.3       12 UNK         0.0230 
     16 S16        24.8933   26.7895    2.8864 S.3       12 UNK        -0.2608 
     17 C17        26.0038   28.0378    2.1566 C.3       12 UNK        -0.0989 
     18 CA         26.9058   27.4220    1.0609 C.3       5 UNK         0.0716 
     19 N          26.1165   26.8932   -0.0566 N.am      5 UNK        -0.4135 
     20 C          26.5996   26.3110   -1.1608 C.2       4 UNK         0.5031 
     21 O          27.7989   26.1478   -1.3909 O.2       4 UNK        -0.5229 
     22 CA         25.5514   25.7721   -2.1435 C.3       4 UNK         0.0329 
     23 CB         26.1157   25.5859   -3.5647 C.3       4 UNK        -0.2001 
     24 N          25.0586   24.4870   -1.6506 N.am      4 UNK        -0.4303 
     25 C          23.9808   24.3299   -0.8692 C.2       3 UNK         0.5044 
     26 O          23.2718   25.2674   -0.5010 O.2       3 UNK        -0.5152 
     27 CA         23.6105   22.8994   -0.4289 C.3       3 UNK         0.0319 
     28 CB         22.4730   22.3492   -1.3047 C.3       3 UNK        -0.2001 
     29 N          24.7364   21.9627   -0.4673 N.am      3 UNK        -0.4354 
     30 C          25.7196   21.9220    0.4413 C.2       2 UNK         0.4964 
     31 O          25.7489   22.6326    1.4464 O.2       2 UNK        -0.5047 
     32 CA         26.8946   20.9557    0.1795 C.3       2 UNK         0.0288 
     33 CB         26.6532   19.9482   -0.9692 C.3       2 UNK        -0.2113 
     34 N          28.1390   21.7036   -0.0388 N.am      2 UNK        -0.4145 
     35 C          28.3346   22.6595   -0.9587 C.2       1 UNK         0.5006 
     36 O          27.5292   22.9222   -1.8530 O.2       1 UNK        -0.5103 
     37 C          27.9677   28.4424    0.6090 C.2       5 UNK         0.5055 
     38 O          27.6645   29.3325   -0.1909 O.2       5 UNK        -0.5220 
     39 N          29.1834   28.2942    1.1475 N.am      6 UNK        -0.4450 
     40 CA         30.3125   29.1897    0.9060 C.3       6 UNK         0.0367 
     41 CB         31.6139   28.4313    1.2201 C.3       6 UNK        -0.1929 
     42 C          30.1974   30.4815    1.7366 C.2       6 UNK         0.5070 
     43 O          29.3564   30.5778    2.6346 O.2       6 UNK        -0.5237 
     44 N          31.0533   31.4589    1.4147 N.am      7 UNK        -0.4739 
     45 CA         31.1735   32.7275    2.1368 C.3       7 UNK         0.0276 
     46 CB         32.0632   33.6789    1.3195 C.3       7 UNK        -0.1927 
     47 C          31.7647   32.5323    3.5425 C.2       7 UNK         0.5013 
     48 O          32.5566   31.6104    3.7504 O.2       7 UNK        -0.5193 
     49 N          31.4395   33.4499    4.4631 N.am      8 UNK        -0.4253 
     50 CA         31.9032   33.4472    5.8580 C.3       8 UNK         0.0242 
     51 CB         31.2515   34.6188    6.6106 C.3       8 UNK        -0.2000 
     52 C          33.4349   33.4842    6.0304 C.2       8 UNK         0.4948 
     53 O          33.9360   32.9920    7.0404 O.2       8 UNK        -0.5275 
     54 N          34.1464   34.0467    5.0433 N.am      9 UNK        -0.4246 
     55 CA         35.6087   34.0523    4.9682 C.3       9 UNK         0.0261 
     56 CB         36.0560   35.1861    4.0304 C.3       9 UNK        -0.1959 
     57 C          36.2034   32.7083    4.5026 C.2       9 UNK         0.5033 
     58 O          37.3744   32.4504    4.7856 O.2       9 UNK        -0.5390 
     59 N          35.4162   31.8923    3.7866 N.am      10 UNK        -0.4215 
     60 CA         35.8131   30.5725    3.2916 C.3       10 UNK         0.0240 
     61 CB         35.1635   30.3209    1.9211 C.3       10 UNK        -0.1982 
     62 C          35.4354   29.4681    4.2898 C.2       10 UNK         0.4970 
     63 O          36.2238   28.5420    4.4851 O.2       10 UNK        -0.4916 
     64 N          34.2539   29.5906    4.9098 N.am      11 UNK        -0.4279 
     65 CA         33.7863   28.7460    6.0183 C.3       11 UNK         0.1003 
     66 C          34.7059   28.8188    7.2713 C.2       11 UNK         0.5709 
     67 N          34.7685   27.7482    8.0521 N.am      11 UNK        -0.7358 
     68 O          35.3308   29.8363    7.5634 O.2       11 UNK        -0.4999 
     69 C69        32.3209   29.0848    6.3957 C.3       12 UNK        -0.0954 
     70 S70        31.1308   28.5184    5.1354 S.3       12 UNK        -0.2268 
     71 C71        30.4751   27.0406    5.9657 C.3       12 UNK         0.0203 
     72 H72        29.3908   21.4762   -3.5028 H         1 UNK         0.0888 
     73 H73        29.9642   23.1433   -3.6695 H         1 UNK         0.0888 
     74 H74        30.8499   21.8296   -4.4224 H         1 UNK         0.0888 
     75 H75        31.4116   22.4248   -0.3434 H         1 UNK         0.3017 
     76 H76        29.6251   24.1790   -1.6788 H         1 UNK         0.0873 
     77 H77        28.8531   24.6873    0.7403 H         1 UNK         0.0745 
     78 H78        30.4705   25.0857    0.2717 H         1 UNK         0.0745 
     79 H79        29.3612   22.4136    3.7614 H         1 UNK         0.0705 
     80 H80        28.2392   22.7701    2.4776 H         1 UNK         0.0705 
     81 H81        30.7709   24.8107    4.4198 H         1 UNK         0.1334 
     82 H82        27.8422   27.6637    5.7032 H         1 UNK         0.1417 
     83 H83        26.6722   24.3584    3.2340 H         1 UNK         0.1562 
     84 H84        25.5674   27.4651    5.0937 H         1 UNK         0.0748 
     85 H85        25.0708   25.7919    5.0680 H         1 UNK         0.0748 
     86 H86        26.6048   28.4913    2.9480 H         1 UNK         0.0940 
     87 H87        25.3956   28.8454    1.7443 H         1 UNK         0.0940 
     88 H88        27.4322   26.5678    1.4891 H         1 UNK         0.0703 
     89 H89        25.1133   26.9353    0.0590 H         1 UNK         0.3081 
     90 H90        24.7348   26.4949   -2.2058 H         1 UNK         0.0719 
     91 H91        26.5020   26.5282   -3.9551 H         1 UNK         0.0809 
     92 H92        26.9330   24.8644   -3.5901 H         1 UNK         0.0809 
     93 H93        25.3448   25.2402   -4.2534 H         1 UNK         0.0809 
     94 H94        25.6621   23.6902   -1.8293 H         1 UNK         0.2990 
     95 H95        23.2466   22.9600    0.5992 H         1 UNK         0.0690 
     96 H96        22.7749   22.2570   -2.3488 H         1 UNK         0.0788 
     97 H97        21.6036   23.0076   -1.2740 H         1 UNK         0.0788 
     98 H98        22.1458   21.3679   -0.9605 H         1 UNK         0.0788 
     99 H99        24.8024   21.3573   -1.2730 H         1 UNK         0.2993 
    100 H100       27.0274   20.3842    1.0995 H         1 UNK         0.0949 
    101 H101       26.5400   20.4352   -1.9383 H         1 UNK         0.0767 
    102 H102       27.4869   19.2508   -1.0528 H         1 UNK         0.0767 
    103 H103       25.7583   19.3512   -0.7883 H         1 UNK         0.0767 
    104 H104       28.8684   21.5596    0.6459 H         1 UNK         0.3013 
    105 H105       29.3244   27.5808    1.8482 H         1 UNK         0.3121 
    106 H106       30.3184   29.4638   -0.1513 H         1 UNK         0.0774 
    107 H107       32.4871   29.0153    0.9324 H         1 UNK         0.0815 
    108 H108       31.7074   28.2052    2.2821 H         1 UNK         0.0815 
    109 H109       31.6682   27.4904    0.6722 H         1 UNK         0.0815 
    110 H110       31.7268   31.2931    0.6814 H         1 UNK         0.2987 
    111 H111       30.1763   33.1631    2.2325 H         1 UNK         0.0949 
    112 H112       31.6518   33.8500    0.3245 H         1 UNK         0.0806 
    113 H113       32.1469   34.6535    1.8023 H         1 UNK         0.0806 
    114 H114       33.0742   33.2858    1.2010 H         1 UNK         0.0806 
    115 H115       30.8013   34.1892    4.2051 H         1 UNK         0.3010 
    116 H116       31.5541   32.5169    6.3104 H         1 UNK         0.0829 
    117 H117       30.1638   34.5473    6.5935 H         1 UNK         0.0813 
    118 H118       31.5557   34.6273    7.6584 H         1 UNK         0.0813 
    119 H119       31.5334   35.5814    6.1822 H         1 UNK         0.0813 
    120 H120       33.6466   34.4537    4.2665 H         1 UNK         0.3038 
    121 H121       36.0067   34.2585    5.9643 H         1 UNK         0.0769 
    122 H122       37.1443   35.2398    3.9752 H         1 UNK         0.0811 
    123 H123       35.7039   36.1557    4.3832 H         1 UNK         0.0811 
    124 H124       35.6855   35.0418    3.0146 H         1 UNK         0.0811 
    125 H125       34.4372   32.1318    3.6695 H         1 UNK         0.3204 
    126 H126       36.8965   30.5421    3.1561 H         1 UNK         0.0748 
    127 H127       35.4295   29.3354    1.5365 H         1 UNK         0.0771 
    128 H128       34.0767   30.3692    1.9751 H         1 UNK         0.0771 
    129 H129       35.4936   31.0562    1.1872 H         1 UNK         0.0771 
    130 H130       33.6358   30.3500    4.6390 H         1 UNK         0.2980 
    131 H131       33.8196   27.7145    5.6616 H         1 UNK         0.0545 
    132 H132       35.3480   27.7784    8.8763 H         1 UNK         0.3459 
    133 H133       34.2554   26.9091    7.8319 H         1 UNK         0.3459 
    134 H134       32.0476   28.6388    7.3539 H         1 UNK         0.0616 
    135 H135       32.2014   30.1613    6.5272 H         1 UNK         0.0616 
    136 H136       31.3010   26.3645    6.1926 H         1 UNK         0.0634 
    137 H137       30.0425   27.3298    6.9247 H         1 UNK         0.0634 
@<TRIPOS>BOND
     1    1    2 1    
     2    1   72 1    
     3    1   73 1    
     4    1   74 1    
     5    2    3 2    
     6    2    4 am   BACKBONE|DICT|INTERRES
     7    4    5 1    
     8    4   75 1    
     9    5    6 1    
    10    5   35 1    
    11    5   76 1    
    12    6    7 1    
    13    6   77 1    
    14    6   78 1    
    15    7    8 1    
    16    8    9 1    
    17    8   79 1    
    18    8   80 1    
    19    9   10 ar   
    20    9   14 ar   
    21   10   11 ar   
    22   10   81 1    
    23   11   12 ar   
    24   11   71 1    
    25   12   13 ar   
    26   12   82 1    
    27   13   14 ar   
    28   13   15 1    
    29   14   83 1    
    30   15   16 1    
    31   15   84 1    
    32   15   85 1    
    33   16   17 1    
    34   17   18 1    
    35   17   86 1    
    36   17   87 1    
    37   18   19 1    
    38   18   37 1    
    39   18   88 1    
    40   19   20 am   BACKBONE|DICT|INTERRES
    41   19   89 1    
    42   20   21 2    
    43   20   22 1    
    44   22   23 1    
    45   22   24 1    
    46   22   90 1    
    47   23   91 1    
    48   23   92 1    
    49   23   93 1    
    50   24   25 am   BACKBONE|DICT|INTERRES
    51   24   94 1    
    52   25   26 2    
    53   25   27 1    
    54   27   28 1    
    55   27   29 1    
    56   27   95 1    
    57   28   96 1    
    58   28   97 1    
    59   28   98 1    
    60   29   30 am   BACKBONE|DICT|INTERRES
    61   29   99 1    
    62   30   31 2    
    63   30   32 1    
    64   32   33 1    
    65   32   34 1    
    66   32  100 1    
    67   33  101 1    
    68   33  102 1    
    69   33  103 1    
    70   34   35 am   BACKBONE|DICT|INTERRES
    71   34  104 1    
    72   35   36 2    
    73   37   38 2    
    74   37   39 am   BACKBONE|DICT|INTERRES
    75   39   40 1    
    76   39  105 1    
    77   40   41 1    
    78   40   42 1    
    79   40  106 1    
    80   41  107 1    
    81   41  108 1    
    82   41  109 1    
    83   42   43 2    
    84   42   44 am   BACKBONE|DICT|INTERRES
    85   44   45 1    
    86   44  110 1    
    87   45   46 1    
    88   45   47 1    
    89   45  111 1    
    90   46  112 1    
    91   46  113 1    
    92   46  114 1    
    93   47   48 2    
    94   47   49 am   BACKBONE|DICT|INTERRES
    95   49   50 1    
    96   49  115 1    
    97   50   51 1    
    98   50   52 1    
    99   50  116 1    
   100   51  117 1    
   101   51  118 1    
   102   51  119 1    
   103   52   53 2    
   104   52   54 am   BACKBONE|DICT|INTERRES
   105   54   55 1    
   106   54  120 1    
   107   55   56 1    
   108   55   57 1    
   109   55  121 1    
   110   56  122 1    
   111   56  123 1    
   112   56  124 1    
   113   57   58 2    
   114   57   59 am   BACKBONE|DICT|INTERRES
   115   59   60 1    
   116   59  125 1    
   117   60   61 1    
   118   60   62 1    
   119   60  126 1    
   120   61  127 1    
   121   61  128 1    
   122   61  129 1    
   123   62   63 2    
   124   62   64 am   BACKBONE|DICT|INTERRES
   125   64   65 1    
   126   64  130 1    
   127   65   66 1    
   128   65   69 1    
   129   65  131 1    
   130   66   67 am   BACKBONE|DICT|INTERRES
   131   66   68 2    
   132   67  132 1    
   133   67  133 1    
   134   69   70 1    
   135   69  134 1    
   136   69  135 1    
   137   70   71 1    
   138   71  136 1    
   139   71  137 1    
@<TRIPOS>SUBSTRUCTURE
     1 UNK         1 GROUP             0       ****    0 ROOT    
