@<TRIPOS>MOLECULE
3R136
137   139    1
SMALL
USER_CHARGES


@<TRIPOS>ATOM
      1 CA         28.8578   23.6629   -4.2825 C.3       0 UNK        -0.1979 
      2 C          29.4104   23.6271   -2.8657 C.2       0 UNK         0.4864 
      3 O          30.5314   24.0784   -2.6362 O.2       0 UNK        -0.5359 
      4 N          28.6264   23.1024   -1.9198 N.am      1 UNK        -0.4318 
      5 CA         28.9111   22.9941   -0.4905 C.3       1 UNK         0.0824 
      6 C6         30.0010   21.9267   -0.1996 C.3       12 UNK        -0.0944 
      7 S7         30.6040   21.9198    1.5240 S.3       12 UNK        -0.2672 
      8 C8         32.1522   22.8693    1.4025 C.3       12 UNK         0.0333 
      9 C9         31.9006   24.3687    1.4574 C.ar      12 UNK        -0.0807 
     10 C10        31.7033   24.9962    2.6908 C.ar      12 UNK        -0.0894 
     11 C11        31.5005   26.3768    2.7600 C.ar      12 UNK        -0.0804 
     12 C12        31.4862   27.1299    1.5822 C.ar      12 UNK        -0.0824 
     13 C13        31.6995   26.5185    0.3429 C.ar      12 UNK        -0.0762 
     14 C14        31.9013   25.1350    0.2879 C.ar      12 UNK        -0.0782 
     15 C15        31.7683   27.3538   -0.9318 C.3       12 UNK         0.0230 
     16 S16        30.2459   28.2995   -1.2646 S.3       12 UNK        -0.2608 
     17 C17        29.0460   26.9565   -1.5494 C.3       12 UNK        -0.0989 
     18 CA         27.6568   27.2362   -0.9341 C.3       5 UNK         0.0716 
     19 N          26.6873   26.2114   -1.2812 N.am      5 UNK        -0.4135 
     20 C          25.8705   26.1863   -2.3380 C.2       4 UNK         0.5031 
     21 O          25.9925   26.9141   -3.3230 O.2       4 UNK        -0.5229 
     22 CA         24.6791   25.2088   -2.2455 C.3       4 UNK         0.0329 
     23 CB         24.9587   23.9171   -3.0282 C.3       4 UNK        -0.2001 
     24 N          24.3462   24.8924   -0.8474 N.am      4 UNK        -0.4303 
     25 C          23.7674   25.7711   -0.0127 C.2       3 UNK         0.5044 
     26 O          23.2460   26.8193   -0.3943 O.2       3 UNK        -0.5152 
     27 CA         23.8602   25.5134    1.5005 C.3       3 UNK         0.0319 
     28 CB         22.5004   25.1070    2.1053 C.3       3 UNK        -0.2001 
     29 N          24.9626   24.6220    1.8956 N.am      3 UNK        -0.4354 
     30 C          25.0016   23.2829    1.8829 C.2       2 UNK         0.4964 
     31 O          24.0829   22.5675    1.4815 O.2       2 UNK        -0.5047 
     32 CA         26.3199   22.6539    2.3737 C.3       2 UNK         0.0288 
     33 CB         26.2071   21.1305    2.5991 C.3       2 UNK        -0.2113 
     34 N          27.4575   22.9555    1.4942 N.am      2 UNK        -0.4145 
     35 C          27.5646   22.6737    0.1877 C.2       1 UNK         0.5006 
     36 O          26.6565   22.1787   -0.4873 O.2       1 UNK        -0.5103 
     37 C          27.6585   27.2622    0.6051 C.2       5 UNK         0.5055 
     38 O          27.4191   26.2225    1.2320 O.2       5 UNK        -0.5220 
     39 N          27.8908   28.4431    1.1815 N.am      6 UNK        -0.4450 
     40 CA         27.9179   28.7045    2.6148 C.3       6 UNK         0.0367 
     41 CB         26.4862   28.7173    3.1854 C.3       6 UNK        -0.1929 
     42 C          28.6078   30.0553    2.8432 C.2       6 UNK         0.5070 
     43 O          28.6484   30.8761    1.9233 O.2       6 UNK        -0.5237 
     44 N          29.1047   30.2658    4.0712 N.am      7 UNK        -0.4739 
     45 CA         29.6668   31.5205    4.5983 C.3       7 UNK         0.0276 
     46 CB         28.5471   32.5701    4.7684 C.3       7 UNK        -0.1927 
     47 C          30.8758   32.0788    3.8151 C.2       7 UNK         0.5013 
     48 O          31.0721   33.2957    3.7829 O.2       7 UNK        -0.5193 
     49 N          31.6885   31.1963    3.2161 N.am      8 UNK        -0.4253 
     50 CA         32.8561   31.5434    2.3954 C.3       8 UNK         0.0242 
     51 CB         33.1606   30.3816    1.4317 C.3       8 UNK        -0.2000 
     52 C          34.0831   31.9531    3.2367 C.2       8 UNK         0.4948 
     53 O          35.1507   31.3513    3.1033 O.2       8 UNK        -0.5275 
     54 N          33.9034   32.9682    4.0937 N.am      9 UNK        -0.4246 
     55 CA         34.8671   33.5943    5.0100 C.3       9 UNK         0.0261 
     56 CB         36.0083   34.2899    4.2399 C.3       9 UNK        -0.1959 
     57 C          35.4047   32.6425    6.0927 C.2       9 UNK         0.5033 
     58 O          35.0872   32.8208    7.2696 O.2       9 UNK        -0.5390 
     59 N          36.1795   31.6323    5.6771 N.am      10 UNK        -0.4215 
     60 CA         36.7732   30.5955    6.5290 C.3       10 UNK         0.0240 
     61 CB         37.7461   29.7522    5.6893 C.3       10 UNK        -0.1982 
     62 C          35.7326   29.6935    7.2169 C.2       10 UNK         0.4970 
     63 O          36.0342   29.1079    8.2574 O.2       10 UNK        -0.4916 
     64 N          34.5298   29.6180    6.6355 N.am      11 UNK        -0.4279 
     65 CA         33.3486   28.9487    7.1955 C.3       11 UNK         0.1003 
     66 C          32.7614   29.6375    8.4641 C.2       11 UNK         0.5709 
     67 N          33.1316   30.8715    8.7923 N.am      11 UNK        -0.7358 
     68 O          31.9519   29.0356    9.1652 O.2       11 UNK        -0.4999 
     69 C69        32.2460   28.7667    6.1205 C.3       12 UNK        -0.0954 
     70 S70        32.8360   27.9018    4.6277 S.3       12 UNK        -0.2268 
     71 C71        31.3160   27.0572    4.1064 C.3       12 UNK         0.0203 
     72 H72        29.5569   23.1880   -4.9702 H         1 UNK         0.0888 
     73 H73        28.7132   24.6952   -4.6006 H         1 UNK         0.0888 
     74 H74        27.9017   23.1458   -4.3617 H         1 UNK         0.0888 
     75 H75        27.7130   22.7295   -2.1525 H         1 UNK         0.3017 
     76 H76        29.2483   23.9679   -0.1323 H         1 UNK         0.0873 
     77 H77        30.8580   22.0745   -0.8574 H         1 UNK         0.0745 
     78 H78        29.6268   20.9285   -0.4349 H         1 UNK         0.0745 
     79 H79        32.7986   22.5843    2.2340 H         1 UNK         0.0705 
     80 H80        32.6944   22.5952    0.4962 H         1 UNK         0.0705 
     81 H81        31.7181   24.4079    3.5983 H         1 UNK         0.1334 
     82 H82        31.3262   28.1966    1.6309 H         1 UNK         0.1417 
     83 H83        32.0737   24.6535   -0.6650 H         1 UNK         0.1562 
     84 H84        31.9831   26.7245   -1.7974 H         1 UNK         0.0748 
     85 H85        32.6022   28.0519   -0.8478 H         1 UNK         0.0748 
     86 H86        29.4448   26.0224   -1.1585 H         1 UNK         0.0940 
     87 H87        28.9547   26.8180   -2.6277 H         1 UNK         0.0940 
     88 H88        27.2870   28.1987   -1.2953 H         1 UNK         0.0703 
     89 H89        26.4878   25.5988   -0.5011 H         1 UNK         0.3081 
     90 H90        23.8172   25.6979   -2.7045 H         1 UNK         0.0719 
     91 H91        25.8227   23.3832   -2.6389 H         1 UNK         0.0809 
     92 H92        24.1043   23.2409   -2.9949 H         1 UNK         0.0809 
     93 H93        25.1580   24.1354   -4.0784 H         1 UNK         0.0809 
     94 H94        24.6970   24.0216   -0.4691 H         1 UNK         0.2990 
     95 H95        24.1205   26.4766    1.9422 H         1 UNK         0.0690 
     96 H96        22.5754   24.9401    3.1797 H         1 UNK         0.0788 
     97 H97        22.1002   24.2018    1.6484 H         1 UNK         0.0788 
     98 H98        21.7607   25.8936    1.9507 H         1 UNK         0.0788 
     99 H99        25.8197   25.1058    2.1454 H         1 UNK         0.2993 
    100 H100       26.5415   23.1096    3.3403 H         1 UNK         0.0949 
    101 H101       25.4102   20.8992    3.3070 H         1 UNK         0.0767 
    102 H102       25.9850   20.5964    1.6743 H         1 UNK         0.0767 
    103 H103       27.1320   20.7218    3.0064 H         1 UNK         0.0767 
    104 H104       28.2536   23.3849    1.9469 H         1 UNK         0.3013 
    105 H105       28.1244   29.2527    0.6170 H         1 UNK         0.3121 
    106 H106       28.4934   27.9169    3.1015 H         1 UNK         0.0774 
    107 H107       26.0022   27.7475    3.0746 H         1 UNK         0.0815 
    108 H108       25.8631   29.4616    2.6881 H         1 UNK         0.0815 
    109 H109       26.4882   28.9525    4.2503 H         1 UNK         0.0815 
    110 H110       29.0082   29.5233    4.7504 H         1 UNK         0.2987 
    111 H111       30.0434   31.2923    5.5962 H         1 UNK         0.0949 
    112 H112       28.1546   32.9001    3.8059 H         1 UNK         0.0806 
    113 H113       27.7158   32.1738    5.3513 H         1 UNK         0.0806 
    114 H114       28.9114   33.4552    5.2916 H         1 UNK         0.0806 
    115 H115       31.4829   30.2140    3.3174 H         1 UNK         0.3010 
    116 H116       32.5978   32.4093    1.7818 H         1 UNK         0.0829 
    117 H117       32.3086   30.1709    0.7854 H         1 UNK         0.0813 
    118 H118       34.0006   30.6247    0.7795 H         1 UNK         0.0813 
    119 H119       33.4215   29.4682    1.9674 H         1 UNK         0.0813 
    120 H120       32.9617   33.3530    4.1260 H         1 UNK         0.3038 
    121 H121       34.3114   34.3743    5.5333 H         1 UNK         0.0769 
    122 H122       36.5945   33.5911    3.6428 H         1 UNK         0.0811 
    123 H123       36.6958   34.7855    4.9267 H         1 UNK         0.0811 
    124 H124       35.6188   35.0539    3.5670 H         1 UNK         0.0811 
    125 H125       36.2660   31.5119    4.6706 H         1 UNK         0.3204 
    126 H126       37.3401   31.0967    7.3162 H         1 UNK         0.0748 
    127 H127       38.5394   30.3675    5.2643 H         1 UNK         0.0771 
    128 H128       38.2248   28.9839    6.2984 H         1 UNK         0.0771 
    129 H129       37.2355   29.2475    4.8678 H         1 UNK         0.0771 
    130 H130       34.3892   30.1080    5.7658 H         1 UNK         0.2980 
    131 H131       33.6671   27.9541    7.5130 H         1 UNK         0.0545 
    132 H132       32.7410   31.2949    9.6188 H         1 UNK         0.3459 
    133 H133       33.8023   31.3857    8.2350 H         1 UNK         0.3459 
    134 H134       31.4048   28.2094    6.5375 H         1 UNK         0.0616 
    135 H135       31.8531   29.7363    5.8150 H         1 UNK         0.0616 
    136 H136       31.0235   26.3335    4.8688 H         1 UNK         0.0634 
    137 H137       30.5130   27.7874    4.0451 H         1 UNK         0.0634 
@<TRIPOS>BOND
     1    1    2 1    
     2    1   72 1    
     3    1   73 1    
     4    1   74 1    
     5    2    3 2    
     6    2    4 am   BACKBONE|DICT|INTERRES
     7    4    5 1    
     8    4   75 1    
     9    5    6 1    
    10    5   35 1    
    11    5   76 1    
    12    6    7 1    
    13    6   77 1    
    14    6   78 1    
    15    7    8 1    
    16    8    9 1    
    17    8   79 1    
    18    8   80 1    
    19    9   10 ar   
    20    9   14 ar   
    21   10   11 ar   
    22   10   81 1    
    23   11   12 ar   
    24   11   71 1    
    25   12   13 ar   
    26   12   82 1    
    27   13   14 ar   
    28   13   15 1    
    29   14   83 1    
    30   15   16 1    
    31   15   84 1    
    32   15   85 1    
    33   16   17 1    
    34   17   18 1    
    35   17   86 1    
    36   17   87 1    
    37   18   19 1    
    38   18   37 1    
    39   18   88 1    
    40   19   20 am   BACKBONE|DICT|INTERRES
    41   19   89 1    
    42   20   21 2    
    43   20   22 1    
    44   22   23 1    
    45   22   24 1    
    46   22   90 1    
    47   23   91 1    
    48   23   92 1    
    49   23   93 1    
    50   24   25 am   BACKBONE|DICT|INTERRES
    51   24   94 1    
    52   25   26 2    
    53   25   27 1    
    54   27   28 1    
    55   27   29 1    
    56   27   95 1    
    57   28   96 1    
    58   28   97 1    
    59   28   98 1    
    60   29   30 am   BACKBONE|DICT|INTERRES
    61   29   99 1    
    62   30   31 2    
    63   30   32 1    
    64   32   33 1    
    65   32   34 1    
    66   32  100 1    
    67   33  101 1    
    68   33  102 1    
    69   33  103 1    
    70   34   35 am   BACKBONE|DICT|INTERRES
    71   34  104 1    
    72   35   36 2    
    73   37   38 2    
    74   37   39 am   BACKBONE|DICT|INTERRES
    75   39   40 1    
    76   39  105 1    
    77   40   41 1    
    78   40   42 1    
    79   40  106 1    
    80   41  107 1    
    81   41  108 1    
    82   41  109 1    
    83   42   43 2    
    84   42   44 am   BACKBONE|DICT|INTERRES
    85   44   45 1    
    86   44  110 1    
    87   45   46 1    
    88   45   47 1    
    89   45  111 1    
    90   46  112 1    
    91   46  113 1    
    92   46  114 1    
    93   47   48 2    
    94   47   49 am   BACKBONE|DICT|INTERRES
    95   49   50 1    
    96   49  115 1    
    97   50   51 1    
    98   50   52 1    
    99   50  116 1    
   100   51  117 1    
   101   51  118 1    
   102   51  119 1    
   103   52   53 2    
   104   52   54 am   BACKBONE|DICT|INTERRES
   105   54   55 1    
   106   54  120 1    
   107   55   56 1    
   108   55   57 1    
   109   55  121 1    
   110   56  122 1    
   111   56  123 1    
   112   56  124 1    
   113   57   58 2    
   114   57   59 am   BACKBONE|DICT|INTERRES
   115   59   60 1    
   116   59  125 1    
   117   60   61 1    
   118   60   62 1    
   119   60  126 1    
   120   61  127 1    
   121   61  128 1    
   122   61  129 1    
   123   62   63 2    
   124   62   64 am   BACKBONE|DICT|INTERRES
   125   64   65 1    
   126   64  130 1    
   127   65   66 1    
   128   65   69 1    
   129   65  131 1    
   130   66   67 am   BACKBONE|DICT|INTERRES
   131   66   68 2    
   132   67  132 1    
   133   67  133 1    
   134   69   70 1    
   135   69  134 1    
   136   69  135 1    
   137   70   71 1    
   138   71  136 1    
   139   71  137 1    
@<TRIPOS>SUBSTRUCTURE
     1 UNK         1 GROUP             0       ****    0 ROOT    
