@<TRIPOS>MOLECULE
3R136
137   139    1
SMALL
USER_CHARGES


@<TRIPOS>ATOM
      1 CA         29.4677   27.7210   -2.6641 C.3       0 UNK        -0.1979 
      2 C          29.0238   26.7525   -1.5797 C.2       0 UNK         0.4864 
      3 O          27.9464   26.9275   -1.0108 O.2       0 UNK        -0.5359 
      4 N          29.8357   25.7283   -1.2838 N.am      1 UNK        -0.4318 
      5 CA         29.5426   24.6877   -0.2872 C.3       1 UNK         0.0824 
      6 C6         30.7290   23.7185   -0.0765 C.3       12 UNK        -0.0944 
      7 S7         32.2437   24.5828    0.4597 S.3       12 UNK        -0.2672 
      8 C8         32.5624   23.8304    2.0857 C.3       12 UNK         0.0333 
      9 C9         31.7466   24.4753    3.1979 C.ar      12 UNK        -0.0807 
     10 C10        32.2426   25.6051    3.8567 C.ar      12 UNK        -0.0894 
     11 C11        31.5505   26.1593    4.9370 C.ar      12 UNK        -0.0804 
     12 C12        30.3415   25.5901    5.3432 C.ar      12 UNK        -0.0824 
     13 C13        29.8292   24.4654    4.6892 C.ar      12 UNK        -0.0762 
     14 C14        30.5349   23.9124    3.6148 C.ar      12 UNK        -0.0782 
     15 C15        28.5442   23.8174    5.1889 C.3       12 UNK         0.0230 
     16 S16        27.1424   24.0391    4.0492 S.3       12 UNK        -0.2608 
     17 C17        26.9442   25.8549    4.0027 C.3       12 UNK        -0.0989 
     18 CA         26.9705   26.3784    2.5412 C.3       5 UNK         0.0716 
     19 N          25.8853   25.8276    1.7185 N.am      5 UNK        -0.4135 
     20 C          24.5739   26.0672    1.8739 C.2       4 UNK         0.5031 
     21 O          24.1090   26.8334    2.7208 O.2       4 UNK        -0.5229 
     22 CA         23.6213   25.3047    0.9304 C.3       4 UNK         0.0329 
     23 CB         22.1604   25.7968    1.0187 C.3       4 UNK        -0.2001 
     24 N          24.0768   25.2935   -0.4635 N.am      4 UNK        -0.4303 
     25 C          24.3221   26.3481   -1.2551 C.2       3 UNK         0.5044 
     26 O          24.1610   27.5186   -0.9082 O.2       3 UNK        -0.5152 
     27 CA         24.8453   26.0293   -2.6708 C.3       3 UNK         0.0319 
     28 CB         25.3558   27.2809   -3.4102 C.3       3 UNK        -0.2001 
     29 N          25.9142   25.0269   -2.6385 N.am      3 UNK        -0.4354 
     30 C          25.7361   23.6988   -2.5885 C.2       2 UNK         0.4964 
     31 O          24.6262   23.1664   -2.5843 O.2       2 UNK        -0.5047 
     32 CA         26.9904   22.8126   -2.4838 C.3       2 UNK         0.0288 
     33 CB         27.3646   22.2488   -3.8641 C.3       2 UNK        -0.2113 
     34 N          28.1524   23.5000   -1.9148 N.am      2 UNK        -0.4145 
     35 C          28.2587   23.9091   -0.6412 C.2       1 UNK         0.5006 
     36 O          27.3809   23.7499    0.2088 O.2       1 UNK        -0.5103 
     37 C          27.0550   27.9168    2.4360 C.2       5 UNK         0.5055 
     38 O          27.1503   28.6077    3.4526 O.2       5 UNK        -0.5220 
     39 N          27.0288   28.4269    1.1967 N.am      6 UNK        -0.4450 
     40 CA         27.1733   29.8489    0.8785 C.3       6 UNK         0.0367 
     41 CB         26.6184   30.1149   -0.5297 C.3       6 UNK        -0.1929 
     42 C          28.6295   30.3330    0.9794 C.2       6 UNK         0.5070 
     43 O          28.8547   31.5248    1.1910 O.2       6 UNK        -0.5237 
     44 N          29.5976   29.4134    0.8540 N.am      7 UNK        -0.4739 
     45 CA         31.0426   29.6605    0.9383 C.3       7 UNK         0.0276 
     46 CB         31.7906   28.5037    0.2490 C.3       7 UNK        -0.1927 
     47 C          31.5396   29.8897    2.3811 C.2       7 UNK         0.5013 
     48 O          32.5595   29.3232    2.7749 O.2       7 UNK        -0.5193 
     49 N          30.8302   30.7322    3.1445 N.am      8 UNK        -0.4253 
     50 CA         31.0812   31.0409    4.5574 C.3       8 UNK         0.0242 
     51 CB         30.0267   32.0415    5.0544 C.3       8 UNK        -0.2000 
     52 C          32.4999   31.5579    4.8519 C.2       8 UNK         0.4948 
     53 O          33.0376   31.2676    5.9201 O.2       8 UNK        -0.5275 
     54 N          33.1005   32.2609    3.8806 N.am      9 UNK        -0.4246 
     55 CA         34.4817   32.7471    3.9140 C.3       9 UNK         0.0261 
     56 CB         34.7514   33.5941    2.6601 C.3       9 UNK        -0.1959 
     57 C          35.5388   31.6345    4.0474 C.2       9 UNK         0.5033 
     58 O          36.5966   31.8896    4.6249 O.2       9 UNK        -0.5390 
     59 N          35.2389   30.4188    3.5609 N.am      10 UNK        -0.4215 
     60 CA         36.1070   29.2443    3.7031 C.3       10 UNK         0.0240 
     61 CB         35.6410   28.1388    2.7419 C.3       10 UNK        -0.1982 
     62 C          36.1763   28.7138    5.1477 C.2       10 UNK         0.4970 
     63 O          37.1368   28.0194    5.4821 O.2       10 UNK        -0.4916 
     64 N          35.1792   29.0589    5.9715 N.am      11 UNK        -0.4279 
     65 CA         35.1192   28.7608    7.4078 C.3       11 UNK         0.1003 
     66 C          35.6830   29.9132    8.2915 C.2       11 UNK         0.5709 
     67 N          36.2159   30.9954    7.7327 N.am      11 UNK        -0.7358 
     68 O          35.6612   29.8150    9.5163 O.2       11 UNK        -0.4999 
     69 C69        33.6838   28.3476    7.8302 C.3       12 UNK        -0.0954 
     70 S70        33.1695   26.7708    7.0716 S.3       12 UNK        -0.2268 
     71 C71        32.1270   27.3433    5.6965 C.3       12 UNK         0.0203 
     72 H72        30.4615   27.4823   -3.0421 H         1 UNK         0.0888 
     73 H73        29.4867   28.7379   -2.2734 H         1 UNK         0.0888 
     74 H74        28.7693   27.6916   -3.4998 H         1 UNK         0.0888 
     75 H75        30.7260   25.6419   -1.7538 H         1 UNK         0.3017 
     76 H76        29.3655   25.1938    0.6615 H         1 UNK         0.0873 
     77 H77        30.4681   22.9542    0.6576 H         1 UNK         0.0745 
     78 H78        30.9592   23.1820   -0.9989 H         1 UNK         0.0745 
     79 H79        32.3788   22.7557    2.0441 H         1 UNK         0.0705 
     80 H80        33.6247   23.9392    2.3098 H         1 UNK         0.0705 
     81 H81        33.1850   26.0349    3.5481 H         1 UNK         0.1334 
     82 H82        29.8136   26.0094    6.1890 H         1 UNK         0.1417 
     83 H83        30.1494   23.0304    3.1219 H         1 UNK         0.1562 
     84 H84        28.2669   24.2084    6.1692 H         1 UNK         0.0748 
     85 H85        28.7151   22.7490    5.3284 H         1 UNK         0.0748 
     86 H86        27.7348   26.3213    4.5912 H         1 UNK         0.0940 
     87 H87        26.0098   26.1224    4.4983 H         1 UNK         0.0940 
     88 H88        27.8962   26.0192    2.0958 H         1 UNK         0.0703 
     89 H89        26.1800   25.1564    1.0161 H         1 UNK         0.3081 
     90 H90        23.6378   24.2661    1.2641 H         1 UNK         0.0719 
     91 H91        22.0702   26.8476    0.7411 H         1 UNK         0.0809 
     92 H92        21.5066   25.2196    0.3649 H         1 UNK         0.0809 
     93 H93        21.7737   25.6946    2.0334 H         1 UNK         0.0809 
     94 H94        24.2316   24.3778   -0.8697 H         1 UNK         0.2990 
     95 H95        24.0023   25.6317   -3.2399 H         1 UNK         0.0690 
     96 H96        25.7168   27.0341   -4.4086 H         1 UNK         0.0788 
     97 H97        26.1677   27.7667   -2.8687 H         1 UNK         0.0788 
     98 H98        24.5593   28.0167   -3.5281 H         1 UNK         0.0788 
     99 H99        26.8524   25.3888   -2.5463 H         1 UNK         0.2993 
    100 H100       26.7407   21.9764   -1.8267 H         1 UNK         0.0949 
    101 H101       26.5275   21.7039   -4.3033 H         1 UNK         0.0767 
    102 H102       27.6411   23.0395   -4.5629 H         1 UNK         0.0767 
    103 H103       28.2005   21.5522   -3.7954 H         1 UNK         0.0767 
    104 H104       28.9176   23.6926   -2.5451 H         1 UNK         0.3013 
    105 H105       27.0109   27.7903    0.4019 H         1 UNK         0.3121 
    106 H106       26.5823   30.4267    1.5924 H         1 UNK         0.0774 
    107 H107       27.1620   29.5566   -1.2922 H         1 UNK         0.0815 
    108 H108       26.6913   31.1728   -0.7853 H         1 UNK         0.0815 
    109 H109       25.5667   29.8376   -0.5991 H         1 UNK         0.0815 
    110 H110       29.3111   28.4559    0.7121 H         1 UNK         0.2987 
    111 H111       31.2668   30.5753    0.3854 H         1 UNK         0.0949 
    112 H112       31.5821   27.5480    0.7312 H         1 UNK         0.0806 
    113 H113       31.5197   28.4226   -0.8018 H         1 UNK         0.0806 
    114 H114       32.8707   28.6541    0.2815 H         1 UNK         0.0806 
    115 H115       30.0246   31.1731    2.7100 H         1 UNK         0.3010 
    116 H116       30.9558   30.1117    5.1148 H         1 UNK         0.0829 
    117 H117       29.0187   31.6391    4.9500 H         1 UNK         0.0813 
    118 H118       30.1741   32.2725    6.1105 H         1 UNK         0.0813 
    119 H119       30.0716   32.9824    4.5043 H         1 UNK         0.0813 
    120 H120       32.5747   32.4441    3.0384 H         1 UNK         0.3038 
    121 H121       34.5787   33.3913    4.7905 H         1 UNK         0.0769 
    122 H122       34.6404   33.0097    1.7457 H         1 UNK         0.0811 
    123 H123       35.7669   33.9931    2.6701 H         1 UNK         0.0811 
    124 H124       34.0727   34.4452    2.6010 H         1 UNK         0.0811 
    125 H125       34.3239   30.2554    3.1499 H         1 UNK         0.3204 
    126 H126       37.1190   29.5368    3.4149 H         1 UNK         0.0748 
    127 H127       36.3197   27.2853    2.7706 H         1 UNK         0.0771 
    128 H128       34.6487   27.7719    3.0017 H         1 UNK         0.0771 
    129 H129       35.6079   28.4932    1.7116 H         1 UNK         0.0771 
    130 H130       34.4525   29.6786    5.6351 H         1 UNK         0.2980 
    131 H131       35.7699   27.9096    7.6163 H         1 UNK         0.0545 
    132 H132       36.5808   31.7227    8.3268 H         1 UNK         0.3459 
    133 H133       36.2627   31.0959    6.7285 H         1 UNK         0.3459 
    134 H134       33.6266   28.2064    8.9108 H         1 UNK         0.0616 
    135 H135       32.9637   29.1313    7.5901 H         1 UNK         0.0616 
    136 H136       31.3216   27.9662    6.0871 H         1 UNK         0.0634 
    137 H137       32.7173   27.9709    5.0288 H         1 UNK         0.0634 
@<TRIPOS>BOND
     1    1    2 1    
     2    1   72 1    
     3    1   73 1    
     4    1   74 1    
     5    2    3 2    
     6    2    4 am   BACKBONE|DICT|INTERRES
     7    4    5 1    
     8    4   75 1    
     9    5    6 1    
    10    5   35 1    
    11    5   76 1    
    12    6    7 1    
    13    6   77 1    
    14    6   78 1    
    15    7    8 1    
    16    8    9 1    
    17    8   79 1    
    18    8   80 1    
    19    9   10 ar   
    20    9   14 ar   
    21   10   11 ar   
    22   10   81 1    
    23   11   12 ar   
    24   11   71 1    
    25   12   13 ar   
    26   12   82 1    
    27   13   14 ar   
    28   13   15 1    
    29   14   83 1    
    30   15   16 1    
    31   15   84 1    
    32   15   85 1    
    33   16   17 1    
    34   17   18 1    
    35   17   86 1    
    36   17   87 1    
    37   18   19 1    
    38   18   37 1    
    39   18   88 1    
    40   19   20 am   BACKBONE|DICT|INTERRES
    41   19   89 1    
    42   20   21 2    
    43   20   22 1    
    44   22   23 1    
    45   22   24 1    
    46   22   90 1    
    47   23   91 1    
    48   23   92 1    
    49   23   93 1    
    50   24   25 am   BACKBONE|DICT|INTERRES
    51   24   94 1    
    52   25   26 2    
    53   25   27 1    
    54   27   28 1    
    55   27   29 1    
    56   27   95 1    
    57   28   96 1    
    58   28   97 1    
    59   28   98 1    
    60   29   30 am   BACKBONE|DICT|INTERRES
    61   29   99 1    
    62   30   31 2    
    63   30   32 1    
    64   32   33 1    
    65   32   34 1    
    66   32  100 1    
    67   33  101 1    
    68   33  102 1    
    69   33  103 1    
    70   34   35 am   BACKBONE|DICT|INTERRES
    71   34  104 1    
    72   35   36 2    
    73   37   38 2    
    74   37   39 am   BACKBONE|DICT|INTERRES
    75   39   40 1    
    76   39  105 1    
    77   40   41 1    
    78   40   42 1    
    79   40  106 1    
    80   41  107 1    
    81   41  108 1    
    82   41  109 1    
    83   42   43 2    
    84   42   44 am   BACKBONE|DICT|INTERRES
    85   44   45 1    
    86   44  110 1    
    87   45   46 1    
    88   45   47 1    
    89   45  111 1    
    90   46  112 1    
    91   46  113 1    
    92   46  114 1    
    93   47   48 2    
    94   47   49 am   BACKBONE|DICT|INTERRES
    95   49   50 1    
    96   49  115 1    
    97   50   51 1    
    98   50   52 1    
    99   50  116 1    
   100   51  117 1    
   101   51  118 1    
   102   51  119 1    
   103   52   53 2    
   104   52   54 am   BACKBONE|DICT|INTERRES
   105   54   55 1    
   106   54  120 1    
   107   55   56 1    
   108   55   57 1    
   109   55  121 1    
   110   56  122 1    
   111   56  123 1    
   112   56  124 1    
   113   57   58 2    
   114   57   59 am   BACKBONE|DICT|INTERRES
   115   59   60 1    
   116   59  125 1    
   117   60   61 1    
   118   60   62 1    
   119   60  126 1    
   120   61  127 1    
   121   61  128 1    
   122   61  129 1    
   123   62   63 2    
   124   62   64 am   BACKBONE|DICT|INTERRES
   125   64   65 1    
   126   64  130 1    
   127   65   66 1    
   128   65   69 1    
   129   65  131 1    
   130   66   67 am   BACKBONE|DICT|INTERRES
   131   66   68 2    
   132   67  132 1    
   133   67  133 1    
   134   69   70 1    
   135   69  134 1    
   136   69  135 1    
   137   70   71 1    
   138   71  136 1    
   139   71  137 1    
@<TRIPOS>SUBSTRUCTURE
     1 UNK         1 GROUP             0       ****    0 ROOT    
