@<TRIPOS>MOLECULE
3R136
137   139    1
SMALL
USER_CHARGES


@<TRIPOS>ATOM
      1 CA         30.0661   25.2074    2.2473 C.3       0 UNK        -0.1979 
      2 C          29.8011   24.6962    0.8495 C.2       0 UNK         0.4864 
      3 O          29.0170   25.2943    0.1082 O.2       0 UNK        -0.5359 
      4 N          30.4834   23.6074    0.4746 N.am      1 UNK        -0.4318 
      5 CA         30.4310   22.9313   -0.8276 C.3       1 UNK         0.0824 
      6 C6         31.0091   21.4978   -0.7280 C.3       12 UNK        -0.0944 
      7 S7         29.9904   20.4328    0.3510 S.3       12 UNK        -0.2672 
      8 C8         31.0948   20.0968    1.7616 C.3       12 UNK         0.0333 
      9 C9         31.0991   21.2112    2.8027 C.ar      12 UNK        -0.0807 
     10 C10        32.2767   21.9109    3.0845 C.ar      12 UNK        -0.0894 
     11 C11        32.3092   22.8701    4.1024 C.ar      12 UNK        -0.0804 
     12 C12        31.1456   23.1414    4.8311 C.ar      12 UNK        -0.0824 
     13 C13        29.9579   22.4543    4.5556 C.ar      12 UNK        -0.0762 
     14 C14        29.9437   21.4897    3.5419 C.ar      12 UNK        -0.0782 
     15 C15        28.7082   22.7056    5.3924 C.3       12 UNK         0.0230 
     16 S16        27.3821   23.5198    4.4373 S.3       12 UNK        -0.2608 
     17 C17        27.0230   25.0277    5.4100 C.3       12 UNK        -0.0989 
     18 CA         27.4196   26.3379    4.6754 C.3       5 UNK         0.0716 
     19 N          26.7295   26.4683    3.3825 N.am      5 UNK        -0.4135 
     20 C          27.0931   27.2669    2.3703 C.2       4 UNK         0.5031 
     21 O          28.0814   28.0063    2.3967 O.2       4 UNK        -0.5229 
     22 CA         26.1883   27.2762    1.1351 C.3       4 UNK         0.0329 
     23 CB         24.9692   28.1907    1.3592 C.3       4 UNK        -0.2001 
     24 N          26.9808   27.7599    0.0100 N.am      4 UNK        -0.4303 
     25 C          26.7141   27.5701   -1.2858 C.2       3 UNK         0.5044 
     26 O          25.7133   26.9899   -1.7082 O.2       3 UNK        -0.5152 
     27 CA         27.7614   28.0885   -2.2775 C.3       3 UNK         0.0319 
     28 CB         28.1412   29.5625   -2.0259 C.3       3 UNK        -0.2001 
     29 N          28.9377   27.2218   -2.2226 N.am      3 UNK        -0.4354 
     30 C          29.8192   27.0646   -3.2248 C.2       2 UNK         0.4964 
     31 O          29.7536   27.6817   -4.2886 O.2       2 UNK        -0.5047 
     32 CA         30.9581   26.0458   -3.0380 C.3       2 UNK         0.0288 
     33 CB         32.2434   26.7449   -2.5573 C.3       2 UNK        -0.2113 
     34 N          30.5714   24.9992   -2.0994 N.am      2 UNK        -0.4145 
     35 C          31.0851   23.7773   -1.9485 C.2       1 UNK         0.5006 
     36 O          32.0141   23.3309   -2.6249 O.2       1 UNK        -0.5103 
     37 C          27.1966   27.5924    5.5525 C.2       5 UNK         0.5055 
     38 O          26.5640   27.5126    6.6076 O.2       5 UNK        -0.5220 
     39 N          27.6976   28.7350    5.0770 N.am      6 UNK        -0.4450 
     40 CA         27.5635   30.0688    5.6466 C.3       6 UNK         0.0367 
     41 CB         26.1339   30.5973    5.3987 C.3       6 UNK        -0.1929 
     42 C          28.6215   30.9767    5.0020 C.2       6 UNK         0.5070 
     43 O          29.4167   30.5176    4.1740 O.2       6 UNK        -0.5237 
     44 N          28.5860   32.2695    5.3521 N.am      7 UNK        -0.4739 
     45 CA         29.4713   33.3326    4.8527 C.3       7 UNK         0.0276 
     46 CB         29.1384   34.6416    5.5873 C.3       7 UNK        -0.1927 
     47 C          29.4511   33.5524    3.3249 C.2       7 UNK         0.5013 
     48 O          30.3498   34.2164    2.8085 O.2       7 UNK        -0.5193 
     49 N          28.4571   32.9779    2.6300 N.am      8 UNK        -0.4253 
     50 CA         28.3855   32.8807    1.1698 C.3       8 UNK         0.0242 
     51 CB         27.0575   32.2177    0.7659 C.3       8 UNK        -0.2000 
     52 C          29.5749   32.1099    0.5678 C.2       8 UNK         0.4948 
     53 O          30.1047   32.5332   -0.4601 O.2       8 UNK        -0.5275 
     54 N          29.9808   31.0167    1.2302 N.am      9 UNK        -0.4246 
     55 CA         31.2041   30.2741    0.9198 C.3       9 UNK         0.0261 
     56 CB         30.9334   28.7649    1.0153 C.3       9 UNK        -0.1959 
     57 C          32.3400   30.6507    1.8821 C.2       9 UNK         0.5033 
     58 O          33.4942   30.6876    1.4546 O.2       9 UNK        -0.5390 
     59 N          31.9976   30.8849    3.1614 N.am      10 UNK        -0.4215 
     60 CA         32.9013   31.1012    4.3002 C.3       10 UNK         0.0240 
     61 CB         33.6810   32.4249    4.1518 C.3       10 UNK        -0.1982 
     62 C          33.8068   29.8806    4.5693 C.2       10 UNK         0.4970 
     63 O          34.9737   30.0385    4.9327 O.2       10 UNK        -0.4916 
     64 N          33.2429   28.6839    4.3618 N.am      11 UNK        -0.4279 
     65 CA         33.9011   27.3834    4.5223 C.3       11 UNK         0.1003 
     66 C          34.2186   27.0554    6.0070 C.2       11 UNK         0.5709 
     67 N          35.3429   26.4059    6.2754 N.am      11 UNK        -0.7358 
     68 O          33.4375   27.3525    6.9092 O.2       11 UNK        -0.4999 
     69 C69        33.0494   26.2748    3.8494 C.3       12 UNK        -0.0954 
     70 S70        34.0481   24.8717    3.2534 S.3       12 UNK        -0.2268 
     71 C71        33.6193   23.5670    4.4475 C.3       12 UNK         0.0203 
     72 H72        31.0234   24.8503    2.6149 H         1 UNK         0.0888 
     73 H73        30.0764   26.2931    2.2683 H         1 UNK         0.0888 
     74 H74        29.2891   24.8531    2.9148 H         1 UNK         0.0888 
     75 H75        31.0920   23.1677    1.1509 H         1 UNK         0.3017 
     76 H76        29.3784   22.8386   -1.1050 H         1 UNK         0.0873 
     77 H77        32.0426   21.5189   -0.3774 H         1 UNK         0.0745 
     78 H78        31.0310   21.0242   -1.7114 H         1 UNK         0.0745 
     79 H79        30.7601   19.1780    2.2451 H         1 UNK         0.0705 
     80 H80        32.1023   19.8910    1.3967 H         1 UNK         0.0705 
     81 H81        33.1815   21.6885    2.5346 H         1 UNK         0.1334 
     82 H82        31.1708   23.8732    5.6270 H         1 UNK         0.1417 
     83 H83        29.0336   20.9411    3.3387 H         1 UNK         0.1562 
     84 H84        28.9607   23.2856    6.2803 H         1 UNK         0.0748 
     85 H85        28.3311   21.7507    5.7614 H         1 UNK         0.0748 
     86 H86        25.9543   25.0299    5.6337 H         1 UNK         0.0940 
     87 H87        27.5219   24.9703    6.3786 H         1 UNK         0.0940 
     88 H88        28.4935   26.2953    4.4879 H         1 UNK         0.0703 
     89 H89        25.8968   25.9074    3.2787 H         1 UNK         0.3081 
     90 H90        25.8623   26.2541    0.9311 H         1 UNK         0.0719 
     91 H91        24.3717   27.8512    2.2060 H         1 UNK         0.0809 
     92 H92        25.2712   29.2187    1.5635 H         1 UNK         0.0809 
     93 H93        24.3141   28.2024    0.4881 H         1 UNK         0.0809 
     94 H94        27.8472   28.1998    0.2944 H         1 UNK         0.2990 
     95 H95        27.3183   28.0171   -3.2735 H         1 UNK         0.0690 
     96 H96        27.2526   30.1941   -1.9945 H         1 UNK         0.0788 
     97 H97        28.7802   29.9472   -2.8207 H         1 UNK         0.0788 
     98 H98        28.6730   29.6969   -1.0852 H         1 UNK         0.0788 
     99 H99        29.0167   26.6693   -1.3751 H         1 UNK         0.2993 
    100 H100       31.1464   25.5835   -4.0094 H         1 UNK         0.0949 
    101 H101       33.0790   26.0471   -2.5004 H         1 UNK         0.0767 
    102 H102       32.5343   27.5421   -3.2427 H         1 UNK         0.0767 
    103 H103       32.1122   27.1916   -1.5712 H         1 UNK         0.0767 
    104 H104       29.8279   25.2286   -1.4434 H         1 UNK         0.3013 
    105 H105       28.1966   28.7098    4.1880 H         1 UNK         0.3121 
    106 H106       27.7637   30.0210    6.7188 H         1 UNK         0.0774 
    107 H107       25.9164   30.6810    4.3330 H         1 UNK         0.0815 
    108 H108       25.3839   29.9389    5.8369 H         1 UNK         0.0815 
    109 H109       25.9828   31.5807    5.8445 H         1 UNK         0.0815 
    110 H110       27.8962   32.5572    6.0320 H         1 UNK         0.2987 
    111 H111       30.4938   33.0500    5.1108 H         1 UNK         0.0949 
    112 H112       29.2575   34.5346    6.6657 H         1 UNK         0.0806 
    113 H113       29.8013   35.4486    5.2713 H         1 UNK         0.0806 
    114 H114       28.1155   34.9652    5.3909 H         1 UNK         0.0806 
    115 H115       27.7580   32.4732    3.1536 H         1 UNK         0.3010 
    116 H116       28.4051   33.8956    0.7671 H         1 UNK         0.0829 
    117 H117       26.9780   31.1992    1.1493 H         1 UNK         0.0813 
    118 H118       26.9648   32.1646   -0.3196 H         1 UNK         0.0813 
    119 H119       26.2018   32.7838    1.1341 H         1 UNK         0.0813 
    120 H120       29.4881   30.7495    2.0752 H         1 UNK         0.3038 
    121 H121       31.5352   30.4937   -0.0976 H         1 UNK         0.0769 
    122 H122       30.1501   28.4492    0.3281 H         1 UNK         0.0811 
    123 H123       30.6297   28.4858    2.0236 H         1 UNK         0.0811 
    124 H124       31.8282   28.1900    0.7734 H         1 UNK         0.0811 
    125 H125       31.0157   30.7882    3.4182 H         1 UNK         0.3204 
    126 H126       32.2613   31.1957    5.1786 H         1 UNK         0.0748 
    127 H127       34.3993   32.3834    3.3326 H         1 UNK         0.0771 
    128 H128       33.0077   33.2617    3.9647 H         1 UNK         0.0771 
    129 H129       34.2384   32.6540    5.0608 H         1 UNK         0.0771 
    130 H130       32.2680   28.6567    4.1081 H         1 UNK         0.2980 
    131 H131       34.8492   27.4608    3.9856 H         1 UNK         0.0545 
    132 H132       35.9775   26.1409    5.5383 H         1 UNK         0.3459 
    133 H133       35.5602   26.1752    7.2320 H         1 UNK         0.3459 
    134 H134       32.5588   26.6781    2.9624 H         1 UNK         0.0616 
    135 H135       32.2455   25.9322    4.5034 H         1 UNK         0.0616 
    136 H136       34.4230   22.8294    4.4553 H         1 UNK         0.0634 
    137 H137       33.5865   23.9853    5.4547 H         1 UNK         0.0634 
@<TRIPOS>BOND
     1    1    2 1    
     2    1   72 1    
     3    1   73 1    
     4    1   74 1    
     5    2    3 2    
     6    2    4 am   BACKBONE|DICT|INTERRES
     7    4    5 1    
     8    4   75 1    
     9    5    6 1    
    10    5   35 1    
    11    5   76 1    
    12    6    7 1    
    13    6   77 1    
    14    6   78 1    
    15    7    8 1    
    16    8    9 1    
    17    8   79 1    
    18    8   80 1    
    19    9   10 ar   
    20    9   14 ar   
    21   10   11 ar   
    22   10   81 1    
    23   11   12 ar   
    24   11   71 1    
    25   12   13 ar   
    26   12   82 1    
    27   13   14 ar   
    28   13   15 1    
    29   14   83 1    
    30   15   16 1    
    31   15   84 1    
    32   15   85 1    
    33   16   17 1    
    34   17   18 1    
    35   17   86 1    
    36   17   87 1    
    37   18   19 1    
    38   18   37 1    
    39   18   88 1    
    40   19   20 am   BACKBONE|DICT|INTERRES
    41   19   89 1    
    42   20   21 2    
    43   20   22 1    
    44   22   23 1    
    45   22   24 1    
    46   22   90 1    
    47   23   91 1    
    48   23   92 1    
    49   23   93 1    
    50   24   25 am   BACKBONE|DICT|INTERRES
    51   24   94 1    
    52   25   26 2    
    53   25   27 1    
    54   27   28 1    
    55   27   29 1    
    56   27   95 1    
    57   28   96 1    
    58   28   97 1    
    59   28   98 1    
    60   29   30 am   BACKBONE|DICT|INTERRES
    61   29   99 1    
    62   30   31 2    
    63   30   32 1    
    64   32   33 1    
    65   32   34 1    
    66   32  100 1    
    67   33  101 1    
    68   33  102 1    
    69   33  103 1    
    70   34   35 am   BACKBONE|DICT|INTERRES
    71   34  104 1    
    72   35   36 2    
    73   37   38 2    
    74   37   39 am   BACKBONE|DICT|INTERRES
    75   39   40 1    
    76   39  105 1    
    77   40   41 1    
    78   40   42 1    
    79   40  106 1    
    80   41  107 1    
    81   41  108 1    
    82   41  109 1    
    83   42   43 2    
    84   42   44 am   BACKBONE|DICT|INTERRES
    85   44   45 1    
    86   44  110 1    
    87   45   46 1    
    88   45   47 1    
    89   45  111 1    
    90   46  112 1    
    91   46  113 1    
    92   46  114 1    
    93   47   48 2    
    94   47   49 am   BACKBONE|DICT|INTERRES
    95   49   50 1    
    96   49  115 1    
    97   50   51 1    
    98   50   52 1    
    99   50  116 1    
   100   51  117 1    
   101   51  118 1    
   102   51  119 1    
   103   52   53 2    
   104   52   54 am   BACKBONE|DICT|INTERRES
   105   54   55 1    
   106   54  120 1    
   107   55   56 1    
   108   55   57 1    
   109   55  121 1    
   110   56  122 1    
   111   56  123 1    
   112   56  124 1    
   113   57   58 2    
   114   57   59 am   BACKBONE|DICT|INTERRES
   115   59   60 1    
   116   59  125 1    
   117   60   61 1    
   118   60   62 1    
   119   60  126 1    
   120   61  127 1    
   121   61  128 1    
   122   61  129 1    
   123   62   63 2    
   124   62   64 am   BACKBONE|DICT|INTERRES
   125   64   65 1    
   126   64  130 1    
   127   65   66 1    
   128   65   69 1    
   129   65  131 1    
   130   66   67 am   BACKBONE|DICT|INTERRES
   131   66   68 2    
   132   67  132 1    
   133   67  133 1    
   134   69   70 1    
   135   69  134 1    
   136   69  135 1    
   137   70   71 1    
   138   71  136 1    
   139   71  137 1    
@<TRIPOS>SUBSTRUCTURE
     1 UNK         1 GROUP             0       ****    0 ROOT    
