@<TRIPOS>MOLECULE
3R136
137   139    1
SMALL
USER_CHARGES


@<TRIPOS>ATOM
      1 CA         33.4360   21.0580    3.2962 C.3       0 UNK        -0.1979 
      2 C          32.5856   20.3854    2.2211 C.2       0 UNK         0.4864 
      3 O          32.6374   19.1625    2.0954 O.2       0 UNK        -0.5359 
      4 N          31.7998   21.1185    1.4244 N.am      1 UNK        -0.4318 
      5 CA         31.6069   22.5687    1.4173 C.3       1 UNK         0.0824 
      6 C6         30.8123   23.1025    2.6458 C.3       12 UNK        -0.0944 
      7 S7         29.1819   22.3114    2.8920 S.3       12 UNK        -0.2672 
      8 C8         28.7700   22.8451    4.5815 C.3       12 UNK         0.0333 
      9 C9         28.2993   24.2923    4.6258 C.ar      12 UNK        -0.0807 
     10 C10        29.2044   25.3217    4.9004 C.ar      12 UNK        -0.0894 
     11 C11        28.7679   26.6479    4.9721 C.ar      12 UNK        -0.0804 
     12 C12        27.4150   26.9417    4.7820 C.ar      12 UNK        -0.0824 
     13 C13        26.5001   25.9218    4.5065 C.ar      12 UNK        -0.0762 
     14 C14        26.9495   24.5995    4.4230 C.ar      12 UNK        -0.0782 
     15 C15        25.0213   26.2399    4.3377 C.3       12 UNK         0.0230 
     16 S16        24.5651   26.4907    2.5938 S.3       12 UNK        -0.2608 
     17 C17        25.1669   28.1851    2.2645 C.3       12 UNK        -0.0989 
     18 CA         26.3677   28.2141    1.2779 C.3       5 UNK         0.0716 
     19 N          26.1038   27.5566   -0.0100 N.am      5 UNK        -0.4135 
     20 C          25.1182   27.8102   -0.8880 C.2       4 UNK         0.5031 
     21 O          24.2176   28.6321   -0.7083 O.2       4 UNK        -0.5229 
     22 CA         25.1255   27.0144   -2.2101 C.3       4 UNK         0.0329 
     23 CB         25.6883   27.8778   -3.3514 C.3       4 UNK        -0.2001 
     24 N          25.8869   25.7659   -2.1396 N.am      4 UNK        -0.4303 
     25 C          25.5163   24.6825   -1.4437 C.2       3 UNK         0.5044 
     26 O          24.4236   24.5699   -0.8876 O.2       3 UNK        -0.5152 
     27 CA         26.5341   23.5303   -1.3352 C.3       3 UNK         0.0319 
     28 CB         26.1259   22.3665   -2.2533 C.3       3 UNK        -0.2001 
     29 N          27.9328   23.8870   -1.6133 N.am      3 UNK        -0.4354 
     30 C          28.6619   24.7926   -0.9457 C.2       2 UNK         0.4964 
     31 O          28.2072   25.5405   -0.0784 O.2       2 UNK        -0.5047 
     32 CA         30.1584   24.8640   -1.2965 C.3       2 UNK         0.0288 
     33 CB         30.6177   26.3198   -1.4934 C.3       2 UNK        -0.2113 
     34 N          30.9496   24.2507   -0.2308 N.am      2 UNK        -0.4145 
     35 C          30.9232   22.9518    0.0933 C.2       1 UNK         0.5006 
     36 O          30.3711   22.0828   -0.5907 O.2       1 UNK        -0.5103 
     37 C          26.9244   29.6448    1.0938 C.2       5 UNK         0.5055 
     38 O          26.7354   30.2740    0.0494 O.2       5 UNK        -0.5220 
     39 N          27.6182   30.1391    2.1234 N.am      6 UNK        -0.4450 
     40 CA         28.2551   31.4531    2.1872 C.3       6 UNK         0.0367 
     41 CB         29.4947   31.4939    1.2624 C.3       6 UNK        -0.1929 
     42 C          28.6222   31.7303    3.6544 C.2       6 UNK         0.5070 
     43 O          28.1569   31.0157    4.5476 O.2       6 UNK        -0.5237 
     44 N          29.4765   32.7364    3.8809 N.am      7 UNK        -0.4739 
     45 CA         30.2262   32.8990    5.1289 C.3       7 UNK         0.0276 
     46 CB         30.8272   34.3126    5.1778 C.3       7 UNK        -0.1927 
     47 C          31.3397   31.8403    5.1948 C.2       7 UNK         0.5013 
     48 O          31.9120   31.5142    4.1529 O.2       7 UNK        -0.5193 
     49 N          31.6427   31.3444    6.4030 N.am      8 UNK        -0.4253 
     50 CA         32.5091   30.1846    6.6709 C.3       8 UNK         0.0242 
     51 CB         32.6770   30.0156    8.1894 C.3       8 UNK        -0.2000 
     52 C          33.8840   30.1785    5.9766 C.2       8 UNK         0.4948 
     53 O          34.3574   29.1082    5.5944 O.2       8 UNK        -0.5275 
     54 N          34.4830   31.3628    5.7952 N.am      9 UNK        -0.4246 
     55 CA         35.7455   31.5541    5.0764 C.3       9 UNK         0.0261 
     56 CB         36.2667   32.9746    5.3495 C.3       9 UNK        -0.1959 
     57 C          35.6491   31.3032    3.5579 C.2       9 UNK         0.5033 
     58 O          36.6699   30.9910    2.9429 O.2       9 UNK        -0.5390 
     59 N          34.4505   31.4524    2.9775 N.am      10 UNK        -0.4215 
     60 CA         34.1817   31.2887    1.5473 C.3       10 UNK         0.0240 
     61 CB         33.2543   32.4269    1.0885 C.3       10 UNK        -0.1982 
     62 C          33.5670   29.9195    1.2069 C.2       10 UNK         0.4970 
     63 O          33.5122   29.5782    0.0249 O.2       10 UNK        -0.4916 
     64 N          33.1169   29.1605    2.2162 N.am      11 UNK        -0.4279 
     65 CA         32.5057   27.8294    2.0532 C.3       11 UNK         0.1003 
     66 C          33.4743   26.7059    1.5882 C.2       11 UNK         0.5709 
     67 N          34.7880   26.8916    1.6271 N.am      11 UNK        -0.7358 
     68 O          33.0139   25.6430    1.1797 O.2       11 UNK        -0.4999 
     69 C69        31.7388   27.3808    3.3221 C.3       12 UNK        -0.0954 
     70 S70        30.3805   28.5117    3.7378 S.3       12 UNK        -0.2268 
     71 C71        29.7500   27.7677    5.2694 C.3       12 UNK         0.0203 
     72 H72        34.2962   20.4341    3.5383 H         1 UNK         0.0888 
     73 H73        33.8203   22.0266    2.9818 H         1 UNK         0.0888 
     74 H74        32.8547   21.1896    4.2080 H         1 UNK         0.0888 
     75 H75        31.2554   20.6608    0.7027 H         1 UNK         0.3017 
     76 H76        32.5907   23.0390    1.3964 H         1 UNK         0.0873 
     77 H77        31.4009   22.9725    3.5533 H         1 UNK         0.0745 
     78 H78        30.6561   24.1787    2.5586 H         1 UNK         0.0745 
     79 H79        27.9849   22.1944    4.9694 H         1 UNK         0.0705 
     80 H80        29.6307   22.6994    5.2361 H         1 UNK         0.0705 
     81 H81        30.2485   25.0907    5.0601 H         1 UNK         0.1334 
     82 H82        27.0766   27.9660    4.8569 H         1 UNK         0.1417 
     83 H83        26.2451   23.8063    4.2117 H         1 UNK         0.1562 
     84 H84        24.7445   27.1168    4.9251 H         1 UNK         0.0748 
     85 H85        24.4258   25.4165    4.7351 H         1 UNK         0.0748 
     86 H86        25.4345   28.6586    3.2099 H         1 UNK         0.0940 
     87 H87        24.3330   28.7718    1.8765 H         1 UNK         0.0940 
     88 H88        27.1741   27.6299    1.7260 H         1 UNK         0.0703 
     89 H89        26.7844   26.8411   -0.2484 H         1 UNK         0.3081 
     90 H90        24.0888   26.7665   -2.4481 H         1 UNK         0.0719 
     91 H91        26.7287   28.1532   -3.1738 H         1 UNK         0.0809 
     92 H92        25.6342   27.3583   -4.3083 H         1 UNK         0.0809 
     93 H93        25.1209   28.8039   -3.4547 H         1 UNK         0.0809 
     94 H94        26.7961   25.7586   -2.5777 H         1 UNK         0.2990 
     95 H95        26.4967   23.1771   -0.3024 H         1 UNK         0.0690 
     96 H96        26.7670   21.4976   -2.1025 H         1 UNK         0.0788 
     97 H97        26.1786   22.6463   -3.3063 H         1 UNK         0.0788 
     98 H98        25.1020   22.0482   -2.0514 H         1 UNK         0.0788 
     99 H99        28.4070   23.3053   -2.2898 H         1 UNK         0.2993 
    100 H100       30.3410   24.3170   -2.2240 H         1 UNK         0.0949 
    101 H101       31.6744   26.3702   -1.7574 H         1 UNK         0.0767 
    102 H102       30.0582   26.8001   -2.2971 H         1 UNK         0.0767 
    103 H103       30.4712   26.9172   -0.5926 H         1 UNK         0.0767 
    104 H104       31.4927   24.8802    0.3542 H         1 UNK         0.3013 
    105 H105       27.7207   29.6078    2.9802 H         1 UNK         0.3121 
    106 H106       27.5344   32.2096    1.8710 H         1 UNK         0.0774 
    107 H107       30.2832   30.8303    1.6213 H         1 UNK         0.0815 
    108 H108       29.9110   32.4990    1.1999 H         1 UNK         0.0815 
    109 H109       29.2534   31.1970    0.2422 H         1 UNK         0.0815 
    110 H110       29.8278   33.2490    3.0858 H         1 UNK         0.2987 
    111 H111       29.5474   32.7667    5.9745 H         1 UNK         0.0949 
    112 H112       31.5271   34.4836    4.3585 H         1 UNK         0.0806 
    113 H113       30.0507   35.0756    5.1206 H         1 UNK         0.0806 
    114 H114       31.3707   34.4744    6.1096 H         1 UNK         0.0806 
    115 H115       31.1409   31.7079    7.2005 H         1 UNK         0.3010 
    116 H116       31.9763   29.3107    6.2958 H         1 UNK         0.0829 
    117 H117       31.7166   29.8610    8.6816 H         1 UNK         0.0813 
    118 H118       33.2983   29.1490    8.4209 H         1 UNK         0.0813 
    119 H119       33.1517   30.8871    8.6421 H         1 UNK         0.0813 
    120 H120       34.0164   32.1916    6.1342 H         1 UNK         0.3038 
    121 H121       36.4707   30.8424    5.4771 H         1 UNK         0.0769 
    122 H122       35.5751   33.7358    4.9860 H         1 UNK         0.0811 
    123 H123       37.2239   33.1411    4.8532 H         1 UNK         0.0811 
    124 H124       36.4238   33.1428    6.4151 H         1 UNK         0.0811 
    125 H125       33.6345   31.6465    3.5570 H         1 UNK         0.3204 
    126 H126       35.1122   31.3691    0.9816 H         1 UNK         0.0748 
    127 H127       32.3142   32.4262    1.6393 H         1 UNK         0.0771 
    128 H128       33.7237   33.4000    1.2333 H         1 UNK         0.0771 
    129 H129       33.0137   32.3382    0.0281 H         1 UNK         0.0771 
    130 H130       33.1647   29.5170    3.1597 H         1 UNK         0.2980 
    131 H131       31.7705   27.9228    1.2519 H         1 UNK         0.0545 
    132 H132       35.3986   26.1528    1.3172 H         1 UNK         0.3459 
    133 H133       35.1724   27.7588    1.9654 H         1 UNK         0.3459 
    134 H134       31.3056   26.3901    3.1812 H         1 UNK         0.0616 
    135 H135       32.4168   27.3103    4.1747 H         1 UNK         0.0616 
    136 H136       29.2590   28.5458    5.8561 H         1 UNK         0.0634 
    137 H137       30.5775   27.4016    5.8785 H         1 UNK         0.0634 
@<TRIPOS>BOND
     1    1    2 1    
     2    1   72 1    
     3    1   73 1    
     4    1   74 1    
     5    2    3 2    
     6    2    4 am   BACKBONE|DICT|INTERRES
     7    4    5 1    
     8    4   75 1    
     9    5    6 1    
    10    5   35 1    
    11    5   76 1    
    12    6    7 1    
    13    6   77 1    
    14    6   78 1    
    15    7    8 1    
    16    8    9 1    
    17    8   79 1    
    18    8   80 1    
    19    9   10 ar   
    20    9   14 ar   
    21   10   11 ar   
    22   10   81 1    
    23   11   12 ar   
    24   11   71 1    
    25   12   13 ar   
    26   12   82 1    
    27   13   14 ar   
    28   13   15 1    
    29   14   83 1    
    30   15   16 1    
    31   15   84 1    
    32   15   85 1    
    33   16   17 1    
    34   17   18 1    
    35   17   86 1    
    36   17   87 1    
    37   18   19 1    
    38   18   37 1    
    39   18   88 1    
    40   19   20 am   BACKBONE|DICT|INTERRES
    41   19   89 1    
    42   20   21 2    
    43   20   22 1    
    44   22   23 1    
    45   22   24 1    
    46   22   90 1    
    47   23   91 1    
    48   23   92 1    
    49   23   93 1    
    50   24   25 am   BACKBONE|DICT|INTERRES
    51   24   94 1    
    52   25   26 2    
    53   25   27 1    
    54   27   28 1    
    55   27   29 1    
    56   27   95 1    
    57   28   96 1    
    58   28   97 1    
    59   28   98 1    
    60   29   30 am   BACKBONE|DICT|INTERRES
    61   29   99 1    
    62   30   31 2    
    63   30   32 1    
    64   32   33 1    
    65   32   34 1    
    66   32  100 1    
    67   33  101 1    
    68   33  102 1    
    69   33  103 1    
    70   34   35 am   BACKBONE|DICT|INTERRES
    71   34  104 1    
    72   35   36 2    
    73   37   38 2    
    74   37   39 am   BACKBONE|DICT|INTERRES
    75   39   40 1    
    76   39  105 1    
    77   40   41 1    
    78   40   42 1    
    79   40  106 1    
    80   41  107 1    
    81   41  108 1    
    82   41  109 1    
    83   42   43 2    
    84   42   44 am   BACKBONE|DICT|INTERRES
    85   44   45 1    
    86   44  110 1    
    87   45   46 1    
    88   45   47 1    
    89   45  111 1    
    90   46  112 1    
    91   46  113 1    
    92   46  114 1    
    93   47   48 2    
    94   47   49 am   BACKBONE|DICT|INTERRES
    95   49   50 1    
    96   49  115 1    
    97   50   51 1    
    98   50   52 1    
    99   50  116 1    
   100   51  117 1    
   101   51  118 1    
   102   51  119 1    
   103   52   53 2    
   104   52   54 am   BACKBONE|DICT|INTERRES
   105   54   55 1    
   106   54  120 1    
   107   55   56 1    
   108   55   57 1    
   109   55  121 1    
   110   56  122 1    
   111   56  123 1    
   112   56  124 1    
   113   57   58 2    
   114   57   59 am   BACKBONE|DICT|INTERRES
   115   59   60 1    
   116   59  125 1    
   117   60   61 1    
   118   60   62 1    
   119   60  126 1    
   120   61  127 1    
   121   61  128 1    
   122   61  129 1    
   123   62   63 2    
   124   62   64 am   BACKBONE|DICT|INTERRES
   125   64   65 1    
   126   64  130 1    
   127   65   66 1    
   128   65   69 1    
   129   65  131 1    
   130   66   67 am   BACKBONE|DICT|INTERRES
   131   66   68 2    
   132   67  132 1    
   133   67  133 1    
   134   69   70 1    
   135   69  134 1    
   136   69  135 1    
   137   70   71 1    
   138   71  136 1    
   139   71  137 1    
@<TRIPOS>SUBSTRUCTURE
     1 UNK         1 GROUP             0       ****    0 ROOT    
