@<TRIPOS>MOLECULE
3R136
137   139    1
SMALL
USER_CHARGES


@<TRIPOS>ATOM
      1 CA         30.1572   21.2017   -3.9667 C.3       0 UNK        -0.1979 
      2 C          29.7953   22.1304   -2.8176 C.2       0 UNK         0.4864 
      3 O          29.9009   23.3496   -2.9579 O.2       0 UNK        -0.5359 
      4 N          29.3550   21.5685   -1.6844 N.am      1 UNK        -0.4318 
      5 CA         28.9884   22.2776   -0.4510 C.3       1 UNK         0.0824 
      6 C6         29.0900   21.3457    0.7899 C.3       12 UNK        -0.0944 
      7 S7         30.7263   20.5574    0.9954 S.3       12 UNK        -0.2672 
      8 C8         31.2936   21.2183    2.6082 C.3       12 UNK         0.0333 
      9 C9         31.9025   22.6245    2.5950 C.ar      12 UNK        -0.0807 
     10 C10        32.3370   23.1751    3.8082 C.ar      12 UNK        -0.0894 
     11 C11        32.9298   24.4424    3.8535 C.ar      12 UNK        -0.0804 
     12 C12        33.0796   25.1684    2.6690 C.ar      12 UNK        -0.0824 
     13 C13        32.6117   24.6549    1.4570 C.ar      12 UNK        -0.0762 
     14 C14        32.0564   23.3750    1.4222 C.ar      12 UNK        -0.0782 
     15 C15        32.6811   25.4848    0.1832 C.3       12 UNK         0.0230 
     16 S16        31.0499   26.1775   -0.2536 S.3       12 UNK        -0.2608 
     17 C17        30.8189   27.4091    1.0740 C.3       12 UNK        -0.0989 
     18 CA         29.3364   27.6661    1.4585 C.3       5 UNK         0.0716 
     19 N          28.5649   26.4507    1.7510 N.am      5 UNK        -0.4135 
     20 C          28.7046   25.6351    2.8094 C.2       4 UNK         0.5031 
     21 O          29.6354   25.7134    3.6044 O.2       4 UNK        -0.5229 
     22 CA         27.5961   24.5914    3.0720 C.3       4 UNK         0.0329 
     23 CB         27.2884   24.4409    4.5769 C.3       4 UNK        -0.2001 
     24 N          26.3577   24.8164    2.3155 N.am      4 UNK        -0.4303 
     25 C          25.5703   25.9053    2.3371 C.2       3 UNK         0.5044 
     26 O          25.7552   26.8652    3.0876 O.2       3 UNK        -0.5152 
     27 CA         24.4527   25.9613    1.2714 C.3       3 UNK         0.0319 
     28 CB         23.9729   27.4022    0.9944 C.3       3 UNK        -0.2001 
     29 N          24.8285   25.2919    0.0145 N.am      3 UNK        -0.4354 
     30 C          25.9125   25.5484   -0.7351 C.2       2 UNK         0.4964 
     31 O          26.7142   26.4563   -0.5053 O.2       2 UNK        -0.5047 
     32 CA         26.2043   24.5635   -1.8776 C.3       2 UNK         0.0288 
     33 CB         26.3700   25.2991   -3.2175 C.3       2 UNK        -0.2113 
     34 N          27.4176   23.7902   -1.5992 N.am      2 UNK        -0.4145 
     35 C          27.6010   22.9545   -0.5667 C.2       1 UNK         0.5006 
     36 O          26.7233   22.7113    0.2658 O.2       1 UNK        -0.5103 
     37 C          29.2186   28.7318    2.5789 C.2       5 UNK         0.5055 
     38 O          30.0895   29.5964    2.6787 O.2       5 UNK        -0.5220 
     39 N          28.1577   28.6753    3.4031 N.am      6 UNK        -0.4450 
     40 CA         27.9852   29.5104    4.5987 C.3       6 UNK         0.0367 
     41 CB         26.8347   28.9467    5.4468 C.3       6 UNK        -0.1929 
     42 C          27.7566   31.0019    4.2996 C.2       6 UNK         0.5070 
     43 O          27.9780   31.8373    5.1761 O.2       6 UNK        -0.5237 
     44 N          27.3258   31.3118    3.0705 N.am      7 UNK        -0.4739 
     45 CA         27.1686   32.6729    2.5570 C.3       7 UNK         0.0276 
     46 CB         26.1908   32.6389    1.3700 C.3       7 UNK        -0.1927 
     47 C          28.5010   33.3275    2.1404 C.2       7 UNK         0.5013 
     48 O          28.5092   34.5323    1.8819 O.2       7 UNK        -0.5193 
     49 N          29.5851   32.5444    2.0549 N.am      8 UNK        -0.4253 
     50 CA         30.9159   32.9887    1.6499 C.3       8 UNK         0.0242 
     51 CB         31.3833   32.1110    0.4751 C.3       8 UNK        -0.2000 
     52 C          31.8934   32.8592    2.8233 C.2       8 UNK         0.4948 
     53 O          31.6614   32.0780    3.7492 O.2       8 UNK        -0.5275 
     54 N          33.0246   33.5703    2.7243 N.am      9 UNK        -0.4246 
     55 CA         34.1347   33.5353    3.6876 C.3       9 UNK         0.0261 
     56 CB         35.1612   34.6156    3.3073 C.3       9 UNK        -0.1959 
     57 C          34.8224   32.1603    3.8256 C.2       9 UNK         0.5033 
     58 O          35.5737   31.9575    4.7803 O.2       9 UNK        -0.5390 
     59 N          34.5494   31.2441    2.8856 N.am      10 UNK        -0.4215 
     60 CA         34.9867   29.8495    2.8934 C.3       10 UNK         0.0240 
     61 CB         34.5977   29.1915    1.5586 C.3       10 UNK        -0.1982 
     62 C          34.4305   29.0273    4.0698 C.2       10 UNK         0.4970 
     63 O          35.1136   28.0984    4.5002 O.2       10 UNK        -0.4916 
     64 N          33.2277   29.3612    4.5607 N.am      11 UNK        -0.4279 
     65 CA         32.5695   28.6448    5.6657 C.3       11 UNK         0.1003 
     66 C          31.6807   29.5380    6.5756 C.2       11 UNK         0.5709 
     67 N          31.3478   30.7704    6.2114 N.am      11 UNK        -0.7358 
     68 O          31.2975   29.1097    7.6613 O.2       11 UNK        -0.4999 
     69 C69        31.8173   27.3778    5.1638 C.3       12 UNK        -0.0954 
     70 S70        32.1481   25.8716    6.1437 S.3       12 UNK        -0.2268 
     71 C71        33.4380   25.0168    5.1727 C.3       12 UNK         0.0203 
     72 H72        31.2009   21.3420   -4.2466 H         1 UNK         0.0888 
     73 H73        30.0145   20.1535   -3.7042 H         1 UNK         0.0888 
     74 H74        29.5380   21.4217   -4.8360 H         1 UNK         0.0888 
     75 H75        29.2784   20.5623   -1.6351 H         1 UNK         0.3017 
     76 H76        29.6925   23.0983   -0.3103 H         1 UNK         0.0873 
     77 H77        28.3468   20.5486    0.7259 H         1 UNK         0.0745 
     78 H78        28.8570   21.8956    1.6999 H         1 UNK         0.0745 
     79 H79        32.0476   20.5313    2.9948 H         1 UNK         0.0705 
     80 H80        30.4655   21.1885    3.3179 H         1 UNK         0.0705 
     81 H81        32.2243   22.6101    4.7235 H         1 UNK         0.1334 
     82 H82        33.5380   26.1472    2.6963 H         1 UNK         0.1417 
     83 H83        31.7441   22.9814    0.4681 H         1 UNK         0.1562 
     84 H84        33.0318   24.8603   -0.6398 H         1 UNK         0.0748 
     85 H85        33.4051   26.2950    0.2835 H         1 UNK         0.0748 
     86 H86        31.2882   28.3351    0.7377 H         1 UNK         0.0940 
     87 H87        31.3702   27.0991    1.9583 H         1 UNK         0.0940 
     88 H88        28.8507   28.1088    0.5878 H         1 UNK         0.0703 
     89 H89        27.7837   26.2995    1.1199 H         1 UNK         0.3081 
     90 H90        27.9942   23.6409    2.7251 H         1 UNK         0.0719 
     91 H91        26.5205   23.6877    4.7522 H         1 UNK         0.0809 
     92 H92        26.9466   25.3788    5.0156 H         1 UNK         0.0809 
     93 H93        28.1761   24.1302    5.1295 H         1 UNK         0.0809 
     94 H94        26.1497   24.0979    1.6278 H         1 UNK         0.2990 
     95 H95        23.6115   25.4024    1.6837 H         1 UNK         0.0690 
     96 H96        23.1758   27.4189    0.2513 H         1 UNK         0.0788 
     97 H97        24.7828   28.0363    0.6319 H         1 UNK         0.0788 
     98 H98        23.5792   27.8651    1.9002 H         1 UNK         0.0788 
     99 H99        24.2539   24.4993   -0.2394 H         1 UNK         0.2993 
    100 H100       25.3717   23.8632   -1.9711 H         1 UNK         0.0949 
    101 H101       27.2167   25.9871   -3.1983 H         1 UNK         0.0767 
    102 H102       26.5275   24.5983   -4.0377 H         1 UNK         0.0767 
    103 H103       25.4797   25.8828   -3.4552 H         1 UNK         0.0767 
    104 H104       28.2081   23.9291   -2.2234 H         1 UNK         0.3013 
    105 H105       27.4502   27.9620    3.2495 H         1 UNK         0.3121 
    106 H106       28.9036   29.4395    5.1843 H         1 UNK         0.0774 
    107 H107       26.7125   29.5169    6.3686 H         1 UNK         0.0815 
    108 H108       25.8851   28.9825    4.9113 H         1 UNK         0.0815 
    109 H109       27.0214   27.9105    5.7293 H         1 UNK         0.0815 
    110 H110       27.1611   30.5552    2.4227 H         1 UNK         0.2987 
    111 H111       26.7338   33.2959    3.3419 H         1 UNK         0.0949 
    112 H112       25.2232   32.2314    1.6637 H         1 UNK         0.0806 
    113 H113       26.0121   33.6426    0.9816 H         1 UNK         0.0806 
    114 H114       26.5751   32.0353    0.5468 H         1 UNK         0.0806 
    115 H115       29.5343   31.5839    2.3808 H         1 UNK         0.3010 
    116 H116       30.8964   34.0322    1.3283 H         1 UNK         0.0829 
    117 H117       30.6896   32.1741   -0.3635 H         1 UNK         0.0813 
    118 H118       32.3604   32.4260    0.1068 H         1 UNK         0.0813 
    119 H119       31.4627   31.0612    0.7611 H         1 UNK         0.0813 
    120 H120       33.1459   34.1774    1.9256 H         1 UNK         0.3038 
    121 H121       33.7246   33.7828    4.6691 H         1 UNK         0.0769 
    122 H122       35.5944   34.4325    2.3232 H         1 UNK         0.0811 
    123 H123       35.9833   34.6441    4.0242 H         1 UNK         0.0811 
    124 H124       34.7101   35.6080    3.2984 H         1 UNK         0.0811 
    125 H125       33.9285   31.5177    2.1395 H         1 UNK         0.3204 
    126 H126       36.0756   29.8456    2.9757 H         1 UNK         0.0748 
    127 H127       34.9376   28.1555    1.5205 H         1 UNK         0.0771 
    128 H128       33.5171   29.1857    1.4117 H         1 UNK         0.0771 
    129 H129       35.0500   29.7092    0.7125 H         1 UNK         0.0771 
    130 H130       32.7175   30.1401    4.1629 H         1 UNK         0.2980 
    131 H131       33.3684   28.3235    6.3370 H         1 UNK         0.0545 
    132 H132       31.5708   31.1614    5.2992 H         1 UNK         0.3459 
    133 H133       30.7764   31.3121    6.8388 H         1 UNK         0.3459 
    134 H134       32.0633   27.1714    4.1266 H         1 UNK         0.0616 
    135 H135       30.7383   27.5411    5.1556 H         1 UNK         0.0616 
    136 H136       34.2681   25.6997    4.9953 H         1 UNK         0.0634 
    137 H137       33.8448   24.2086    5.7820 H         1 UNK         0.0634 
@<TRIPOS>BOND
     1    1    2 1    
     2    1   72 1    
     3    1   73 1    
     4    1   74 1    
     5    2    3 2    
     6    2    4 am   BACKBONE|DICT|INTERRES
     7    4    5 1    
     8    4   75 1    
     9    5    6 1    
    10    5   35 1    
    11    5   76 1    
    12    6    7 1    
    13    6   77 1    
    14    6   78 1    
    15    7    8 1    
    16    8    9 1    
    17    8   79 1    
    18    8   80 1    
    19    9   10 ar   
    20    9   14 ar   
    21   10   11 ar   
    22   10   81 1    
    23   11   12 ar   
    24   11   71 1    
    25   12   13 ar   
    26   12   82 1    
    27   13   14 ar   
    28   13   15 1    
    29   14   83 1    
    30   15   16 1    
    31   15   84 1    
    32   15   85 1    
    33   16   17 1    
    34   17   18 1    
    35   17   86 1    
    36   17   87 1    
    37   18   19 1    
    38   18   37 1    
    39   18   88 1    
    40   19   20 am   BACKBONE|DICT|INTERRES
    41   19   89 1    
    42   20   21 2    
    43   20   22 1    
    44   22   23 1    
    45   22   24 1    
    46   22   90 1    
    47   23   91 1    
    48   23   92 1    
    49   23   93 1    
    50   24   25 am   BACKBONE|DICT|INTERRES
    51   24   94 1    
    52   25   26 2    
    53   25   27 1    
    54   27   28 1    
    55   27   29 1    
    56   27   95 1    
    57   28   96 1    
    58   28   97 1    
    59   28   98 1    
    60   29   30 am   BACKBONE|DICT|INTERRES
    61   29   99 1    
    62   30   31 2    
    63   30   32 1    
    64   32   33 1    
    65   32   34 1    
    66   32  100 1    
    67   33  101 1    
    68   33  102 1    
    69   33  103 1    
    70   34   35 am   BACKBONE|DICT|INTERRES
    71   34  104 1    
    72   35   36 2    
    73   37   38 2    
    74   37   39 am   BACKBONE|DICT|INTERRES
    75   39   40 1    
    76   39  105 1    
    77   40   41 1    
    78   40   42 1    
    79   40  106 1    
    80   41  107 1    
    81   41  108 1    
    82   41  109 1    
    83   42   43 2    
    84   42   44 am   BACKBONE|DICT|INTERRES
    85   44   45 1    
    86   44  110 1    
    87   45   46 1    
    88   45   47 1    
    89   45  111 1    
    90   46  112 1    
    91   46  113 1    
    92   46  114 1    
    93   47   48 2    
    94   47   49 am   BACKBONE|DICT|INTERRES
    95   49   50 1    
    96   49  115 1    
    97   50   51 1    
    98   50   52 1    
    99   50  116 1    
   100   51  117 1    
   101   51  118 1    
   102   51  119 1    
   103   52   53 2    
   104   52   54 am   BACKBONE|DICT|INTERRES
   105   54   55 1    
   106   54  120 1    
   107   55   56 1    
   108   55   57 1    
   109   55  121 1    
   110   56  122 1    
   111   56  123 1    
   112   56  124 1    
   113   57   58 2    
   114   57   59 am   BACKBONE|DICT|INTERRES
   115   59   60 1    
   116   59  125 1    
   117   60   61 1    
   118   60   62 1    
   119   60  126 1    
   120   61  127 1    
   121   61  128 1    
   122   61  129 1    
   123   62   63 2    
   124   62   64 am   BACKBONE|DICT|INTERRES
   125   64   65 1    
   126   64  130 1    
   127   65   66 1    
   128   65   69 1    
   129   65  131 1    
   130   66   67 am   BACKBONE|DICT|INTERRES
   131   66   68 2    
   132   67  132 1    
   133   67  133 1    
   134   69   70 1    
   135   69  134 1    
   136   69  135 1    
   137   70   71 1    
   138   71  136 1    
   139   71  137 1    
@<TRIPOS>SUBSTRUCTURE
     1 UNK         1 GROUP             0       ****    0 ROOT    
