@<TRIPOS>MOLECULE
3R136
137   139    1
SMALL
USER_CHARGES


@<TRIPOS>ATOM
      1 CA         28.1996   22.3414   -1.6568 C.3       0 UNK        -0.1979 
      2 C          28.0833   22.4370   -0.1432 C.2       0 UNK         0.4864 
      3 O          27.4912   21.5537    0.4791 O.2       0 UNK        -0.5359 
      4 N          28.6286   23.5098    0.4470 N.am      1 UNK        -0.4318 
      5 CA         28.6706   23.8438    1.8815 C.3       1 UNK         0.0824 
      6 C6         29.3421   22.7826    2.7994 C.3       12 UNK        -0.0944 
      7 S7         30.9409   22.1246    2.2086 S.3       12 UNK        -0.2672 
      8 C8         32.1327   23.4253    2.6934 C.3       12 UNK         0.0333 
      9 C9         32.4391   24.4820    1.6270 C.ar      12 UNK        -0.0807 
     10 C10        33.2512   25.5665    1.9772 C.ar      12 UNK        -0.0894 
     11 C11        33.5744   26.5554    1.0415 C.ar      12 UNK        -0.0804 
     12 C12        33.0717   26.4638   -0.2595 C.ar      12 UNK        -0.0824 
     13 C13        32.2593   25.3882   -0.6270 C.ar      12 UNK        -0.0762 
     14 C14        31.9630   24.3968    0.3115 C.ar      12 UNK        -0.0782 
     15 C15        31.6966   25.2799   -2.0352 C.3       12 UNK         0.0230 
     16 S16        29.9848   25.8938   -2.1105 S.3       12 UNK        -0.2608 
     17 C17        30.2536   27.6627   -2.4890 C.3       12 UNK        -0.0989 
     18 CA         29.1083   28.5974   -2.0196 C.3       5 UNK         0.0716 
     19 N          27.7935   28.0879   -2.4196 N.am      5 UNK        -0.4135 
     20 C          26.6556   28.7913   -2.4467 C.2       4 UNK         0.5031 
     21 O          26.5908   30.0037   -2.2391 O.2       4 UNK        -0.5229 
     22 CA         25.3559   28.0052   -2.7048 C.3       4 UNK         0.0329 
     23 CB         25.5610   26.6877   -3.4893 C.3       4 UNK        -0.2001 
     24 N          24.6310   27.7647   -1.4501 N.am      4 UNK        -0.4303 
     25 C          25.0782   27.0979   -0.3746 C.2       3 UNK         0.5044 
     26 O          26.1810   26.5453   -0.3244 O.2       3 UNK        -0.5152 
     27 CA         24.1760   27.0988    0.8774 C.3       3 UNK         0.0319 
     28 CB         22.6650   27.1997    0.5648 C.3       3 UNK        -0.2001 
     29 N          24.4675   25.9594    1.7554 N.am      3 UNK        -0.4354 
     30 C          24.2766   24.6603    1.4854 C.2       2 UNK         0.4964 
     31 O          23.7165   24.2312    0.4744 O.2       2 UNK        -0.5047 
     32 CA         24.8634   23.6743    2.5088 C.3       2 UNK         0.0288 
     33 CB         24.1066   22.3336    2.5335 C.3       2 UNK        -0.2113 
     34 N          26.2657   23.4204    2.1897 N.am      2 UNK        -0.4145 
     35 C          27.2881   24.2472    2.4409 C.2       1 UNK         0.5006 
     36 O          27.1665   25.2914    3.0824 O.2       1 UNK        -0.5103 
     37 C          29.2088   28.9284   -0.5112 C.2       5 UNK         0.5055 
     38 O          30.0690   29.7318   -0.1470 O.2       5 UNK        -0.5220 
     39 N          28.3206   28.3446    0.3114 N.am      6 UNK        -0.4450 
     40 CA         28.2206   28.4476    1.7728 C.3       6 UNK         0.0367 
     41 CB         28.0719   29.9147    2.2314 C.3       6 UNK        -0.1929 
     42 C          29.3559   27.7074    2.5044 C.2       6 UNK         0.5070 
     43 O          30.2472   27.1447    1.8714 O.2       6 UNK        -0.5237 
     44 N          29.2573   27.6550    3.8382 N.am      7 UNK        -0.4739 
     45 CA         30.1967   26.9483    4.7107 C.3       7 UNK         0.0276 
     46 CB         29.5255   26.7277    6.0763 C.3       7 UNK        -0.1927 
     47 C          31.5175   27.7150    4.8785 C.2       7 UNK         0.5013 
     48 O          31.5563   28.9300    4.6745 O.2       7 UNK        -0.5193 
     49 N          32.5629   27.0067    5.3311 N.am      8 UNK        -0.4253 
     50 CA         33.9190   27.5331    5.5440 C.3       8 UNK         0.0242 
     51 CB         34.8293   26.4078    6.0595 C.3       8 UNK        -0.2000 
     52 C          34.0028   28.7633    6.4688 C.2       8 UNK         0.4948 
     53 O          34.8739   29.6103    6.2686 O.2       8 UNK        -0.5275 
     54 N          33.0700   28.8665    7.4262 N.am      9 UNK        -0.4246 
     55 CA         32.8903   30.0277    8.3009 C.3       9 UNK         0.0261 
     56 CB         31.8832   29.6748    9.4077 C.3       9 UNK        -0.1959 
     57 C          32.4469   31.3034    7.5573 C.2       9 UNK         0.5033 
     58 O          32.7582   32.3998    8.0249 O.2       9 UNK        -0.5390 
     59 N          31.7413   31.1508    6.4268 N.am      10 UNK        -0.4215 
     60 CA         31.3656   32.2475    5.5341 C.3       10 UNK         0.0240 
     61 CB         30.0377   31.9184    4.8320 C.3       10 UNK        -0.1982 
     62 C          32.4726   32.5304    4.5065 C.2       10 UNK         0.4970 
     63 O          32.6789   33.6954    4.1640 O.2       10 UNK        -0.4916 
     64 N          33.1673   31.4794    4.0436 N.am      11 UNK        -0.4279 
     65 CA         34.3336   31.5804    3.1494 C.3       11 UNK         0.1003 
     66 C          35.5254   32.3485    3.7853 C.2       11 UNK         0.5709 
     67 N          35.8710   32.0710    5.0371 N.am      11 UNK        -0.7358 
     68 O          36.1361   33.1969    3.1396 O.2       11 UNK        -0.4999 
     69 C69        34.8198   30.2016    2.6317 C.3       12 UNK        -0.0954 
     70 S70        33.5157   29.2007    1.8500 S.3       12 UNK        -0.2268 
     71 C71        34.4767   27.7148    1.4335 C.3       12 UNK         0.0203 
     72 H72        28.5954   21.3669   -1.9414 H         1 UNK         0.0888 
     73 H73        27.2184   22.4593   -2.1159 H         1 UNK         0.0888 
     74 H74        28.8610   23.1043   -2.0653 H         1 UNK         0.0888 
     75 H75        29.0449   24.2160   -0.1454 H         1 UNK         0.3017 
     76 H76        29.2913   24.7374    1.9347 H         1 UNK         0.0873 
     77 H77        29.4853   23.1905    3.8018 H         1 UNK         0.0745 
     78 H78        28.6808   21.9233    2.9253 H         1 UNK         0.0745 
     79 H79        31.7824   23.9147    3.6027 H         1 UNK         0.0705 
     80 H80        33.0701   22.9325    2.9547 H         1 UNK         0.0705 
     81 H81        33.6370   25.6419    2.9840 H         1 UNK         0.1334 
     82 H82        33.3104   27.2331   -0.9805 H         1 UNK         0.1417 
     83 H83        31.3518   23.5635    0.0008 H         1 UNK         0.1562 
     84 H84        31.7080   24.2360   -2.3525 H         1 UNK         0.0748 
     85 H85        32.3221   25.8182   -2.7491 H         1 UNK         0.0748 
     86 H86        30.3645   27.7492   -3.5710 H         1 UNK         0.0940 
     87 H87        31.2086   27.9902   -2.0734 H         1 UNK         0.0940 
     88 H88        29.2453   29.5498   -2.5367 H         1 UNK         0.0703 
     89 H89        27.7435   27.0891   -2.5629 H         1 UNK         0.3081 
     90 H90        24.7223   28.6521   -3.3136 H         1 UNK         0.0719 
     91 H91        26.0969   26.8663   -4.4226 H         1 UNK         0.0809 
     92 H92        24.6020   26.2421   -3.7535 H         1 UNK         0.0809 
     93 H93        26.1199   25.9407   -2.9248 H         1 UNK         0.0809 
     94 H94        23.7287   28.2141   -1.3804 H         1 UNK         0.2990 
     95 H95        24.4544   27.9876    1.4454 H         1 UNK         0.0690 
     96 H96        22.3390   26.4275   -0.1332 H         1 UNK         0.0788 
     97 H97        22.4114   28.1663    0.1286 H         1 UNK         0.0788 
     98 H98        22.0684   27.0987    1.4716 H         1 UNK         0.0788 
     99 H99        25.0286   26.1763    2.5694 H         1 UNK         0.2993 
    100 H100       24.7940   24.1199    3.5038 H         1 UNK         0.0949 
    101 H101       24.1794   21.8082    1.5801 H         1 UNK         0.0767 
    102 H102       24.4982   21.6737    3.3079 H         1 UNK         0.0767 
    103 H103       23.0473   22.4879    2.7429 H         1 UNK         0.0767 
    104 H104       26.4701   22.6026    1.6187 H         1 UNK         0.3013 
    105 H105       27.6801   27.6686   -0.0983 H         1 UNK         0.3121 
    106 H106       27.2998   27.9238    2.0332 H         1 UNK         0.0774 
    107 H107       27.7992   29.9764    3.2850 H         1 UNK         0.0815 
    108 H108       28.9994   30.4737    2.1062 H         1 UNK         0.0815 
    109 H109       27.2929   30.4285    1.6682 H         1 UNK         0.0815 
    110 H110       28.5001   28.1429    4.2919 H         1 UNK         0.2987 
    111 H111       30.4162   25.9770    4.2620 H         1 UNK         0.0949 
    112 H112       29.2954   27.6725    6.5710 H         1 UNK         0.0806 
    113 H113       28.5950   26.1687    5.9718 H         1 UNK         0.0806 
    114 H114       30.1678   26.1558    6.7472 H         1 UNK         0.0806 
    115 H115       32.4329   26.0234    5.5200 H         1 UNK         0.3010 
    116 H116       34.2902   27.8444    4.5680 H         1 UNK         0.0829 
    117 H117       34.8769   25.5781    5.3540 H         1 UNK         0.0813 
    118 H118       35.8500   26.7664    6.2014 H         1 UNK         0.0813 
    119 H119       34.4856   26.0167    7.0179 H         1 UNK         0.0813 
    120 H120       32.4003   28.1172    7.5200 H         1 UNK         0.3038 
    121 H121       33.8532   30.2422    8.7696 H         1 UNK         0.0769 
    122 H122       30.9025   29.4283    8.9987 H         1 UNK         0.0811 
    123 H123       31.7486   30.5126   10.0934 H         1 UNK         0.0811 
    124 H124       32.2247   28.8260   10.0005 H         1 UNK         0.0811 
    125 H125       31.5774   30.2146    6.0652 H         1 UNK         0.3204 
    126 H126       31.2142   33.1556    6.1219 H         1 UNK         0.0748 
    127 H127       29.2427   31.7309    5.5536 H         1 UNK         0.0771 
    128 H128       29.7156   32.7477    4.2010 H         1 UNK         0.0771 
    129 H129       30.1240   31.0402    4.1927 H         1 UNK         0.0771 
    130 H130       32.8868   30.5449    4.3146 H         1 UNK         0.2980 
    131 H131       34.0103   32.1571    2.2807 H         1 UNK         0.0545 
    132 H132       35.4165   31.3125    5.5381 H         1 UNK         0.3459 
    133 H133       36.6398   32.5649    5.4603 H         1 UNK         0.3459 
    134 H134       35.6168   30.3380    1.8982 H         1 UNK         0.0616 
    135 H135       35.2546   29.6236    3.4481 H         1 UNK         0.0616 
    136 H136       35.0992   27.4311    2.2832 H         1 UNK         0.0634 
    137 H137       35.1607   27.9481    0.6163 H         1 UNK         0.0634 
@<TRIPOS>BOND
     1    1    2 1    
     2    1   72 1    
     3    1   73 1    
     4    1   74 1    
     5    2    3 2    
     6    2    4 am   BACKBONE|DICT|INTERRES
     7    4    5 1    
     8    4   75 1    
     9    5    6 1    
    10    5   35 1    
    11    5   76 1    
    12    6    7 1    
    13    6   77 1    
    14    6   78 1    
    15    7    8 1    
    16    8    9 1    
    17    8   79 1    
    18    8   80 1    
    19    9   10 ar   
    20    9   14 ar   
    21   10   11 ar   
    22   10   81 1    
    23   11   12 ar   
    24   11   71 1    
    25   12   13 ar   
    26   12   82 1    
    27   13   14 ar   
    28   13   15 1    
    29   14   83 1    
    30   15   16 1    
    31   15   84 1    
    32   15   85 1    
    33   16   17 1    
    34   17   18 1    
    35   17   86 1    
    36   17   87 1    
    37   18   19 1    
    38   18   37 1    
    39   18   88 1    
    40   19   20 am   BACKBONE|DICT|INTERRES
    41   19   89 1    
    42   20   21 2    
    43   20   22 1    
    44   22   23 1    
    45   22   24 1    
    46   22   90 1    
    47   23   91 1    
    48   23   92 1    
    49   23   93 1    
    50   24   25 am   BACKBONE|DICT|INTERRES
    51   24   94 1    
    52   25   26 2    
    53   25   27 1    
    54   27   28 1    
    55   27   29 1    
    56   27   95 1    
    57   28   96 1    
    58   28   97 1    
    59   28   98 1    
    60   29   30 am   BACKBONE|DICT|INTERRES
    61   29   99 1    
    62   30   31 2    
    63   30   32 1    
    64   32   33 1    
    65   32   34 1    
    66   32  100 1    
    67   33  101 1    
    68   33  102 1    
    69   33  103 1    
    70   34   35 am   BACKBONE|DICT|INTERRES
    71   34  104 1    
    72   35   36 2    
    73   37   38 2    
    74   37   39 am   BACKBONE|DICT|INTERRES
    75   39   40 1    
    76   39  105 1    
    77   40   41 1    
    78   40   42 1    
    79   40  106 1    
    80   41  107 1    
    81   41  108 1    
    82   41  109 1    
    83   42   43 2    
    84   42   44 am   BACKBONE|DICT|INTERRES
    85   44   45 1    
    86   44  110 1    
    87   45   46 1    
    88   45   47 1    
    89   45  111 1    
    90   46  112 1    
    91   46  113 1    
    92   46  114 1    
    93   47   48 2    
    94   47   49 am   BACKBONE|DICT|INTERRES
    95   49   50 1    
    96   49  115 1    
    97   50   51 1    
    98   50   52 1    
    99   50  116 1    
   100   51  117 1    
   101   51  118 1    
   102   51  119 1    
   103   52   53 2    
   104   52   54 am   BACKBONE|DICT|INTERRES
   105   54   55 1    
   106   54  120 1    
   107   55   56 1    
   108   55   57 1    
   109   55  121 1    
   110   56  122 1    
   111   56  123 1    
   112   56  124 1    
   113   57   58 2    
   114   57   59 am   BACKBONE|DICT|INTERRES
   115   59   60 1    
   116   59  125 1    
   117   60   61 1    
   118   60   62 1    
   119   60  126 1    
   120   61  127 1    
   121   61  128 1    
   122   61  129 1    
   123   62   63 2    
   124   62   64 am   BACKBONE|DICT|INTERRES
   125   64   65 1    
   126   64  130 1    
   127   65   66 1    
   128   65   69 1    
   129   65  131 1    
   130   66   67 am   BACKBONE|DICT|INTERRES
   131   66   68 2    
   132   67  132 1    
   133   67  133 1    
   134   69   70 1    
   135   69  134 1    
   136   69  135 1    
   137   70   71 1    
   138   71  136 1    
   139   71  137 1    
@<TRIPOS>SUBSTRUCTURE
     1 UNK         1 GROUP             0       ****    0 ROOT    
