@<TRIPOS>MOLECULE
3R136
137   139    1
SMALL
USER_CHARGES


@<TRIPOS>ATOM
      1 CA         30.4744   23.3156    7.8590 C.3       0 UNK        -0.1979 
      2 C          29.6807   22.6817    6.7261 C.2       0 UNK         0.4864 
      3 O          28.7856   21.8747    6.9809 O.2       0 UNK        -0.5359 
      4 N          30.0033   23.0412    5.4796 N.am      1 UNK        -0.4318 
      5 CA         29.3091   22.6045    4.2698 C.3       1 UNK         0.0824 
      6 C6         30.3305   22.4771    3.1094 C.3       12 UNK        -0.0944 
      7 S7         29.6542   22.0187    1.4753 S.3       12 UNK        -0.2672 
      8 C8         29.3131   23.6350    0.6998 C.3       12 UNK         0.0333 
      9 C9         30.5604   24.3900    0.2587 C.ar      12 UNK        -0.0807 
     10 C10        31.2453   25.2133    1.1580 C.ar      12 UNK        -0.0894 
     11 C11        32.3511   25.9585    0.7466 C.ar      12 UNK        -0.0804 
     12 C12        32.7432   25.9232   -0.5943 C.ar      12 UNK        -0.0824 
     13 C13        32.0327   25.1461   -1.5164 C.ar      12 UNK        -0.0762 
     14 C14        30.9617   24.3604   -1.0792 C.ar      12 UNK        -0.0782 
     15 C15        32.3974   25.1688   -2.9928 C.3       12 UNK         0.0230 
     16 S16        31.2402   26.2079   -3.9482 S.3       12 UNK        -0.2608 
     17 C17        31.6811   27.8872   -3.3825 C.3       12 UNK        -0.0989 
     18 CA         30.5275   28.6345   -2.6608 C.3       5 UNK         0.0716 
     19 N          29.9407   27.8620   -1.5572 N.am      5 UNK        -0.4135 
     20 C          28.8391   28.2043   -0.8713 C.2       4 UNK         0.5031 
     21 O          28.1440   29.1923   -1.1132 O.2       4 UNK        -0.5229 
     22 CA         28.5337   27.3476    0.3620 C.3       4 UNK         0.0329 
     23 CB         29.1834   27.9547    1.6139 C.3       4 UNK        -0.2001 
     24 N          27.1150   27.1310    0.6262 N.am      4 UNK        -0.4303 
     25 C          26.2904   26.4099   -0.1430 C.2       3 UNK         0.5044 
     26 O          26.5975   25.9451   -1.2426 O.2       3 UNK        -0.5152 
     27 CA         24.9150   26.1061    0.4845 C.3       3 UNK         0.0319 
     28 CB         23.9911   25.2851   -0.4411 C.3       3 UNK        -0.2001 
     29 N          25.0532   25.4622    1.8027 N.am      3 UNK        -0.4354 
     30 C          25.6639   24.2960    2.0732 C.2       2 UNK         0.4964 
     31 O          26.1203   23.5348    1.2184 O.2       2 UNK        -0.5047 
     32 CA         25.7384   23.8926    3.5557 C.3       2 UNK         0.0288 
     33 CB         24.4937   23.0820    3.9538 C.3       2 UNK        -0.2113 
     34 N          26.9360   23.0952    3.8386 N.am      2 UNK        -0.4145 
     35 C          28.1645   23.6056    4.0019 C.2       1 UNK         0.5006 
     36 O          28.4094   24.8141    3.9583 O.2       1 UNK        -0.5103 
     37 C          31.0303   30.0137   -2.1837 C.2       5 UNK         0.5055 
     38 O          30.9163   30.9944   -2.9198 O.2       5 UNK        -0.5220 
     39 N          31.5735   30.0555   -0.9567 N.am      6 UNK        -0.4450 
     40 CA         32.0491   31.2671   -0.2859 C.3       6 UNK         0.0367 
     41 CB         32.9293   30.8638    0.9093 C.3       6 UNK        -0.1929 
     42 C          30.9108   32.1908    0.1825 C.2       6 UNK         0.5070 
     43 O          31.1485   33.3859    0.3579 O.2       6 UNK        -0.5237 
     44 N          29.7136   31.6227    0.3980 N.am      7 UNK        -0.4739 
     45 CA         28.4479   32.2300    0.8393 C.3       7 UNK         0.0276 
     46 CB         27.9355   33.2538   -0.1914 C.3       7 UNK        -0.1927 
     47 C          28.4648   32.8359    2.2559 C.2       7 UNK         0.5013 
     48 O          27.5311   32.6002    3.0227 O.2       7 UNK        -0.5193 
     49 N          29.5125   33.6009    2.5796 N.am      8 UNK        -0.4253 
     50 CA         29.7128   34.2869    3.8570 C.3       8 UNK         0.0242 
     51 CB         30.7635   35.3928    3.6630 C.3       8 UNK        -0.2000 
     52 C          30.1245   33.3549    5.0107 C.2       8 UNK         0.4948 
     53 O          30.0034   33.7577    6.1689 O.2       8 UNK        -0.5275 
     54 N          30.6103   32.1484    4.6954 N.am      9 UNK        -0.4246 
     55 CA         31.0370   31.1374    5.6565 C.3       9 UNK         0.0261 
     56 CB         32.5216   31.3467    6.0065 C.3       9 UNK        -0.1959 
     57 C          30.8101   29.7497    5.0523 C.2       9 UNK         0.5033 
     58 O          30.8742   29.5994    3.8305 O.2       9 UNK        -0.5390 
     59 N          30.5889   28.7613    5.9275 N.am      10 UNK        -0.4215 
     60 CA         30.3801   27.3511    5.5788 C.3       10 UNK         0.0240 
     61 CB         29.5628   26.6911    6.7023 C.3       10 UNK        -0.1982 
     62 C          31.6869   26.5713    5.3229 C.2       10 UNK         0.4970 
     63 O          31.6128   25.4059    4.9310 O.2       10 UNK        -0.4916 
     64 N          32.8357   27.2181    5.5717 N.am      11 UNK        -0.4279 
     65 CA         34.2138   26.7153    5.4519 C.3       11 UNK         0.1003 
     66 C          34.4863   25.3509    6.1603 C.2       11 UNK         0.5709 
     67 N          35.4412   24.5570    5.6940 N.am      11 UNK        -0.7358 
     68 O          33.8841   25.0397    7.1865 O.2       11 UNK        -0.4999 
     69 C69        34.8057   26.8976    4.0195 C.3       12 UNK        -0.0954 
     70 S70        34.2045   25.7295    2.7542 S.3       12 UNK        -0.2268 
     71 C71        33.1118   26.7925    1.7647 C.3       12 UNK         0.0203 
     72 H72        29.8133   23.8934    8.5043 H         1 UNK         0.0888 
     73 H73        30.9519   22.5436    8.4616 H         1 UNK         0.0888 
     74 H74        31.2527   23.9818    7.4859 H         1 UNK         0.0888 
     75 H75        30.6862   23.7819    5.3316 H         1 UNK         0.3017 
     76 H76        28.8756   21.6161    4.4374 H         1 UNK         0.0873 
     77 H77        31.0469   21.6966    3.3702 H         1 UNK         0.0745 
     78 H78        30.9341   23.3755    3.0305 H         1 UNK         0.0745 
     79 H79        28.6619   23.4667   -0.1596 H         1 UNK         0.0705 
     80 H80        28.7352   24.2622    1.3753 H         1 UNK         0.0705 
     81 H81        30.9138   25.2960    2.1837 H         1 UNK         0.1334 
     82 H82        33.5920   26.5090   -0.9205 H         1 UNK         0.1417 
     83 H83        30.4130   23.7595   -1.7924 H         1 UNK         0.1562 
     84 H84        32.3693   24.1527   -3.3894 H         1 UNK         0.0748 
     85 H85        33.4189   25.5235   -3.1394 H         1 UNK         0.0748 
     86 H86        31.9902   28.4526   -4.2643 H         1 UNK         0.0940 
     87 H87        32.5674   27.8342   -2.7485 H         1 UNK         0.0940 
     88 H88        29.7312   28.8109   -3.3872 H         1 UNK         0.0703 
     89 H89        30.4307   27.0132   -1.3083 H         1 UNK         0.3081 
     90 H90        28.9582   26.3670    0.1840 H         1 UNK         0.0719 
     91 H91        28.7317   28.9093    1.8868 H         1 UNK         0.0809 
     92 H92        29.0866   27.2822    2.4655 H         1 UNK         0.0809 
     93 H93        30.2491   28.1316    1.4672 H         1 UNK         0.0809 
     94 H94        26.7641   27.4846    1.5036 H         1 UNK         0.2990 
     95 H95        24.4325   27.0699    0.6549 H         1 UNK         0.0690 
     96 H96        23.8163   25.8112   -1.3804 H         1 UNK         0.0788 
     97 H97        23.0188   25.1134    0.0205 H         1 UNK         0.0788 
     98 H98        24.4198   24.3139   -0.6902 H         1 UNK         0.0788 
     99 H99        24.6905   25.9956    2.5812 H         1 UNK         0.2993 
    100 H100       25.7736   24.7987    4.1652 H         1 UNK         0.0949 
    101 H101       23.5815   23.6565    3.7864 H         1 UNK         0.0767 
    102 H102       24.4092   22.1615    3.3742 H         1 UNK         0.0767 
    103 H103       24.5163   22.8132    5.0102 H         1 UNK         0.0767 
    104 H104       26.8175   22.0927    3.8400 H         1 UNK         0.3013 
    105 H105       31.6459   29.1944   -0.4365 H         1 UNK         0.3121 
    106 H106       32.6621   31.8329   -0.9910 H         1 UNK         0.0774 
    107 H107       33.3144   31.7444    1.4255 H         1 UNK         0.0815 
    108 H108       32.3750   30.2755    1.6418 H         1 UNK         0.0815 
    109 H109       33.7906   30.2773    0.5892 H         1 UNK         0.0815 
    110 H110       29.6456   30.6344    0.2012 H         1 UNK         0.2987 
    111 H111       27.7278   31.4099    0.8651 H         1 UNK         0.0949 
    112 H112       28.6036   34.1104   -0.2853 H         1 UNK         0.0806 
    113 H113       27.8311   32.8007   -1.1775 H         1 UNK         0.0806 
    114 H114       26.9550   33.6371    0.0945 H         1 UNK         0.0806 
    115 H115       30.2279   33.7237    1.8641 H         1 UNK         0.3010 
    116 H116       28.7691   34.7570    4.1419 H         1 UNK         0.0829 
    117 H117       30.4496   36.1097    2.9041 H         1 UNK         0.0813 
    118 H118       30.9218   35.9502    4.5874 H         1 UNK         0.0813 
    119 H119       31.7277   34.9830    3.3591 H         1 UNK         0.0813 
    120 H120       30.6305   31.8494    3.7288 H         1 UNK         0.3038 
    121 H121       30.4326   31.2214    6.5627 H         1 UNK         0.0769 
    122 H122       32.8631   30.6131    6.7375 H         1 UNK         0.0811 
    123 H123       32.6912   32.3331    6.4388 H         1 UNK         0.0811 
    124 H124       33.1587   31.2550    5.1256 H         1 UNK         0.0811 
    125 H125       30.5571   28.9858    6.9125 H         1 UNK         0.3204 
    126 H126       29.7916   27.3020    4.6616 H         1 UNK         0.0748 
    127 H127       29.2788   25.6756    6.4297 H         1 UNK         0.0771 
    128 H128       30.1236   26.6374    7.6362 H         1 UNK         0.0771 
    129 H129       28.6375   27.2351    6.8932 H         1 UNK         0.0771 
    130 H130       32.7591   28.1603    5.9200 H         1 UNK         0.2980 
    131 H131       34.7764   27.4114    6.0748 H         1 UNK         0.0545 
    132 H132       35.6356   23.6900    6.1689 H         1 UNK         0.3459 
    133 H133       35.9326   24.7905    4.8457 H         1 UNK         0.3459 
    134 H134       34.6222   27.9171    3.6768 H         1 UNK         0.0616 
    135 H135       35.8922   26.8066    4.0573 H         1 UNK         0.0616 
    136 H136       33.7042   27.5643    1.2714 H         1 UNK         0.0634 
    137 H137       32.4096   27.3072    2.4226 H         1 UNK         0.0634 
@<TRIPOS>BOND
     1    1    2 1    
     2    1   72 1    
     3    1   73 1    
     4    1   74 1    
     5    2    3 2    
     6    2    4 am   BACKBONE|DICT|INTERRES
     7    4    5 1    
     8    4   75 1    
     9    5    6 1    
    10    5   35 1    
    11    5   76 1    
    12    6    7 1    
    13    6   77 1    
    14    6   78 1    
    15    7    8 1    
    16    8    9 1    
    17    8   79 1    
    18    8   80 1    
    19    9   10 ar   
    20    9   14 ar   
    21   10   11 ar   
    22   10   81 1    
    23   11   12 ar   
    24   11   71 1    
    25   12   13 ar   
    26   12   82 1    
    27   13   14 ar   
    28   13   15 1    
    29   14   83 1    
    30   15   16 1    
    31   15   84 1    
    32   15   85 1    
    33   16   17 1    
    34   17   18 1    
    35   17   86 1    
    36   17   87 1    
    37   18   19 1    
    38   18   37 1    
    39   18   88 1    
    40   19   20 am   BACKBONE|DICT|INTERRES
    41   19   89 1    
    42   20   21 2    
    43   20   22 1    
    44   22   23 1    
    45   22   24 1    
    46   22   90 1    
    47   23   91 1    
    48   23   92 1    
    49   23   93 1    
    50   24   25 am   BACKBONE|DICT|INTERRES
    51   24   94 1    
    52   25   26 2    
    53   25   27 1    
    54   27   28 1    
    55   27   29 1    
    56   27   95 1    
    57   28   96 1    
    58   28   97 1    
    59   28   98 1    
    60   29   30 am   BACKBONE|DICT|INTERRES
    61   29   99 1    
    62   30   31 2    
    63   30   32 1    
    64   32   33 1    
    65   32   34 1    
    66   32  100 1    
    67   33  101 1    
    68   33  102 1    
    69   33  103 1    
    70   34   35 am   BACKBONE|DICT|INTERRES
    71   34  104 1    
    72   35   36 2    
    73   37   38 2    
    74   37   39 am   BACKBONE|DICT|INTERRES
    75   39   40 1    
    76   39  105 1    
    77   40   41 1    
    78   40   42 1    
    79   40  106 1    
    80   41  107 1    
    81   41  108 1    
    82   41  109 1    
    83   42   43 2    
    84   42   44 am   BACKBONE|DICT|INTERRES
    85   44   45 1    
    86   44  110 1    
    87   45   46 1    
    88   45   47 1    
    89   45  111 1    
    90   46  112 1    
    91   46  113 1    
    92   46  114 1    
    93   47   48 2    
    94   47   49 am   BACKBONE|DICT|INTERRES
    95   49   50 1    
    96   49  115 1    
    97   50   51 1    
    98   50   52 1    
    99   50  116 1    
   100   51  117 1    
   101   51  118 1    
   102   51  119 1    
   103   52   53 2    
   104   52   54 am   BACKBONE|DICT|INTERRES
   105   54   55 1    
   106   54  120 1    
   107   55   56 1    
   108   55   57 1    
   109   55  121 1    
   110   56  122 1    
   111   56  123 1    
   112   56  124 1    
   113   57   58 2    
   114   57   59 am   BACKBONE|DICT|INTERRES
   115   59   60 1    
   116   59  125 1    
   117   60   61 1    
   118   60   62 1    
   119   60  126 1    
   120   61  127 1    
   121   61  128 1    
   122   61  129 1    
   123   62   63 2    
   124   62   64 am   BACKBONE|DICT|INTERRES
   125   64   65 1    
   126   64  130 1    
   127   65   66 1    
   128   65   69 1    
   129   65  131 1    
   130   66   67 am   BACKBONE|DICT|INTERRES
   131   66   68 2    
   132   67  132 1    
   133   67  133 1    
   134   69   70 1    
   135   69  134 1    
   136   69  135 1    
   137   70   71 1    
   138   71  136 1    
   139   71  137 1    
@<TRIPOS>SUBSTRUCTURE
     1 UNK         1 GROUP             0       ****    0 ROOT    
