@<TRIPOS>MOLECULE
3R136
137   139    1
SMALL
USER_CHARGES


@<TRIPOS>ATOM
      1 CA         25.3443   20.7868    1.2739 C.3       0 UNK        -0.1979 
      2 C          26.6080   21.6322    1.2219 C.2       0 UNK         0.4864 
      3 O          27.0173   22.1486    2.2610 O.2       0 UNK        -0.5359 
      4 N          27.1915   21.7645    0.0187 N.am      1 UNK        -0.4318 
      5 CA         28.3984   22.4995   -0.4024 C.3       1 UNK         0.0824 
      6 C6         29.6064   21.5729   -0.7134 C.3       12 UNK        -0.0944 
      7 S7         30.4412   20.7933    0.7160 S.3       12 UNK        -0.2672 
      8 C8         32.1976   21.1221    0.3426 C.3       12 UNK         0.0333 
      9 C9         32.6516   22.5176    0.7609 C.ar      12 UNK        -0.0807 
     10 C10        33.2983   22.7055    1.9872 C.ar      12 UNK        -0.0894 
     11 C11        33.7784   23.9669    2.3560 C.ar      12 UNK        -0.0804 
     12 C12        33.5823   25.0554    1.4970 C.ar      12 UNK        -0.0824 
     13 C13        32.9551   24.8792    0.2591 C.ar      12 UNK        -0.0762 
     14 C14        32.4974   23.6082   -0.1023 C.ar      12 UNK        -0.0782 
     15 C15        32.8555   26.0321   -0.7343 C.3       12 UNK         0.0230 
     16 S16        31.1397   26.5622   -1.0400 S.3       12 UNK        -0.2608 
     17 C17        30.8804   27.7669    0.3012 C.3       12 UNK        -0.0989 
     18 CA         29.6282   28.6499    0.0757 C.3       5 UNK         0.0716 
     19 N          28.3876   27.8658   -0.0150 N.am      5 UNK        -0.4135 
     20 C          27.1727   28.3684   -0.2902 C.2       4 UNK         0.5031 
     21 O          26.9574   29.5592   -0.5197 O.2       4 UNK        -0.5229 
     22 CA         25.9916   27.3871   -0.2713 C.3       4 UNK         0.0329 
     23 CB         25.8991   26.6096   -1.5945 C.3       4 UNK        -0.2001 
     24 N          26.1038   26.4553    0.8514 N.am      4 UNK        -0.4303 
     25 C          25.6769   26.7191    2.0951 C.2       3 UNK         0.5044 
     26 O          25.0472   27.7319    2.4011 O.2       3 UNK        -0.5152 
     27 CA         26.0147   25.6926    3.1937 C.3       3 UNK         0.0319 
     28 CB         24.8726   24.6756    3.3461 C.3       3 UNK        -0.2001 
     29 N          27.2722   24.9747    2.9709 N.am      3 UNK        -0.4354 
     30 C          28.4842   25.5472    2.9188 C.2       2 UNK         0.4964 
     31 O          28.6803   26.7501    3.0771 O.2       2 UNK        -0.5047 
     32 CA         29.6714   24.6349    2.5691 C.3       2 UNK         0.0288 
     33 CB         30.1912   23.9483    3.8403 C.3       2 UNK        -0.2113 
     34 N          29.3605   23.6116    1.5701 N.am      2 UNK        -0.4145 
     35 C          28.7339   23.7779    0.3978 C.2       1 UNK         0.5006 
     36 O          28.3678   24.8731   -0.0330 O.2       1 UNK        -0.5103 
     37 C          29.5536   29.7577    1.1476 C.2       5 UNK         0.5055 
     38 O          30.0794   30.8484    0.9217 O.2       5 UNK        -0.5220 
     39 N          28.8666   29.4778    2.2672 N.am      6 UNK        -0.4450 
     40 CA         28.6535   30.3611    3.4204 C.3       6 UNK         0.0367 
     41 CB         27.8159   29.6165    4.4732 C.3       6 UNK        -0.1929 
     42 C          28.0202   31.7306    3.1102 C.2       6 UNK         0.5070 
     43 O          28.1241   32.6320    3.9422 O.2       6 UNK        -0.5237 
     44 N          27.4099   31.8880    1.9260 N.am      7 UNK        -0.4739 
     45 CA         26.9748   33.1775    1.3808 C.3       7 UNK         0.0276 
     46 CB         26.1706   32.9351    0.0941 C.3       7 UNK        -0.1927 
     47 C          28.1442   34.1484    1.1141 C.2       7 UNK         0.5013 
     48 O          27.9363   35.3614    1.1651 O.2       7 UNK        -0.5193 
     49 N          29.3415   33.6035    0.8564 N.am      8 UNK        -0.4253 
     50 CA         30.6026   34.3342    0.7742 C.3       8 UNK         0.0242 
     51 CB         31.3762   33.8948   -0.4827 C.3       8 UNK        -0.2000 
     52 C          31.4066   34.0866    2.0587 C.2       8 UNK         0.4948 
     53 O          31.5906   35.0181    2.8430 O.2       8 UNK        -0.5275 
     54 N          31.8479   32.8382    2.2580 N.am      9 UNK        -0.4246 
     55 CA         32.6219   32.3464    3.3978 C.3       9 UNK         0.0261 
     56 CB         34.0115   33.0131    3.4643 C.3       9 UNK        -0.1959 
     57 C          32.7762   30.8304    3.2351 C.2       9 UNK         0.5033 
     58 O          32.8772   30.3548    2.1013 O.2       9 UNK        -0.5390 
     59 N          32.8118   30.0967    4.3519 N.am      10 UNK        -0.4215 
     60 CA         32.9228   28.6400    4.3681 C.3       10 UNK         0.0240 
     61 CB         31.5396   28.0058    4.1338 C.3       10 UNK        -0.1982 
     62 C          33.5128   28.1529    5.6927 C.2       10 UNK         0.4970 
     63 O          33.6348   28.9230    6.6486 O.2       10 UNK        -0.4916 
     64 N          33.8346   26.8582    5.7026 N.am      11 UNK        -0.4279 
     65 CA         34.1981   26.0409    6.8632 C.3       11 UNK         0.1003 
     66 C          33.0649   25.9395    7.9245 C.2       11 UNK         0.5709 
     67 N          33.4180   25.7092    9.1820 N.am      11 UNK        -0.7358 
     68 O          31.8771   26.0364    7.6200 O.2       11 UNK        -0.4999 
     69 C69        34.6868   24.6374    6.4008 C.3       12 UNK        -0.0954 
     70 S70        33.6074   23.8522    5.1440 S.3       12 UNK        -0.2268 
     71 C71        34.5886   24.1359    3.6361 C.3       12 UNK         0.0203 
     72 H72        25.0732   20.3908    0.2953 H         1 UNK         0.0888 
     73 H73        25.4858   19.9460    1.9523 H         1 UNK         0.0888 
     74 H74        24.5099   21.3838    1.6414 H         1 UNK         0.0888 
     75 H75        26.7313   21.2975   -0.7500 H         1 UNK         0.3017 
     76 H76        28.1022   22.8899   -1.3781 H         1 UNK         0.0873 
     77 H77        29.2751   20.7636   -1.3659 H         1 UNK         0.0745 
     78 H78        30.3332   22.1210   -1.3104 H         1 UNK         0.0745 
     79 H79        32.7999   20.3725    0.8581 H         1 UNK         0.0705 
     80 H80        32.3846   20.9674   -0.7212 H         1 UNK         0.0705 
     81 H81        33.4552   21.8631    2.6472 H         1 UNK         0.1334 
     82 H82        33.9657   26.0300    1.7661 H         1 UNK         0.1417 
     83 H83        32.0445   23.4737   -1.0734 H         1 UNK         0.1562 
     84 H84        33.2871   25.7093   -1.6828 H         1 UNK         0.0748 
     85 H85        33.4552   26.8841   -0.4105 H         1 UNK         0.0748 
     86 H86        31.7717   28.3941    0.3765 H         1 UNK         0.0940 
     87 H87        30.8087   27.2263    1.2423 H         1 UNK         0.0940 
     88 H88        29.7466   29.1567   -0.8843 H         1 UNK         0.0703 
     89 H89        28.4812   26.8614    0.1026 H         1 UNK         0.3081 
     90 H90        25.0733   27.9689   -0.1640 H         1 UNK         0.0719 
     91 H91        26.8003   26.0300   -1.7956 H         1 UNK         0.0809 
     92 H92        25.0529   25.9225   -1.5915 H         1 UNK         0.0809 
     93 H93        25.7596   27.2916   -2.4342 H         1 UNK         0.0809 
     94 H94        26.6739   25.6310    0.6949 H         1 UNK         0.2990 
     95 H95        26.1137   26.2410    4.1328 H         1 UNK         0.0690 
     96 H96        25.0632   23.9851    4.1680 H         1 UNK         0.0788 
     97 H97        24.7354   24.0858    2.4390 H         1 UNK         0.0788 
     98 H98        23.9272   25.1777    3.5565 H         1 UNK         0.0788 
     99 H99        27.2079   23.9727    2.7984 H         1 UNK         0.2993 
    100 H100       30.4731   25.2476    2.1595 H         1 UNK         0.0949 
    101 H101       31.0559   23.3220    3.6260 H         1 UNK         0.0767 
    102 H102       30.4986   24.6827    4.5863 H         1 UNK         0.0767 
    103 H103       29.4291   23.3153    4.2969 H         1 UNK         0.0767 
    104 H104       29.5929   22.6593    1.8204 H         1 UNK         0.3013 
    105 H105       28.5447   28.5203    2.3894 H         1 UNK         0.3121 
    106 H106       29.6365   30.5639    3.8492 H         1 UNK         0.0774 
    107 H107       26.8492   29.3093    4.0722 H         1 UNK         0.0815 
    108 H108       27.6246   30.2458    5.3435 H         1 UNK         0.0815 
    109 H109       28.3288   28.7247    4.8326 H         1 UNK         0.0815 
    110 H110       27.3610   31.0920    1.3020 H         1 UNK         0.2987 
    111 H111       26.3187   33.6488    2.1158 H         1 UNK         0.0949 
    112 H112       26.7758   32.4509   -0.6737 H         1 UNK         0.0806 
    113 H113       25.3017   32.3038    0.2814 H         1 UNK         0.0806 
    114 H114       25.8052   33.8752   -0.3216 H         1 UNK         0.0806 
    115 H115       29.4219   32.5885    0.8665 H         1 UNK         0.3010 
    116 H116       30.4193   35.4081    0.6967 H         1 UNK         0.0829 
    117 H117       30.8339   34.1651   -1.3888 H         1 UNK         0.0813 
    118 H118       32.3508   34.3824   -0.5313 H         1 UNK         0.0813 
    119 H119       31.5459   32.8177   -0.5099 H         1 UNK         0.0813 
    120 H120       31.6063   32.1109    1.5881 H         1 UNK         0.3038 
    121 H121       32.0634   32.5557    4.3123 H         1 UNK         0.0769 
    122 H122       34.5664   32.8740    2.5356 H         1 UNK         0.0811 
    123 H123       34.6118   32.5879    4.2697 H         1 UNK         0.0811 
    124 H124       33.9401   34.0837    3.6542 H         1 UNK         0.0811 
    125 H125       32.8080   30.5357    5.2647 H         1 UNK         0.3204 
    126 H126       33.6026   28.3279    3.5717 H         1 UNK         0.0748 
    127 H127       30.8396   28.2546    4.9322 H         1 UNK         0.0771 
    128 H128       31.1101   28.3499    3.1988 H         1 UNK         0.0771 
    129 H129       31.5956   26.9185    4.0748 H         1 UNK         0.0771 
    130 H130       33.6402   26.3173    4.8741 H         1 UNK         0.2980 
    131 H131       35.0372   26.5447    7.3469 H         1 UNK         0.0545 
    132 H132       32.6991   25.6282    9.8839 H         1 UNK         0.3459 
    133 H133       34.3870   25.6168    9.4448 H         1 UNK         0.3459 
    134 H134       35.6945   24.7250    5.9922 H         1 UNK         0.0616 
    135 H135       34.7839   23.9562    7.2482 H         1 UNK         0.0616 
    136 H136       35.0287   25.1334    3.6716 H         1 UNK         0.0634 
    137 H137       35.4257   23.4364    3.6251 H         1 UNK         0.0634 
@<TRIPOS>BOND
     1    1    2 1    
     2    1   72 1    
     3    1   73 1    
     4    1   74 1    
     5    2    3 2    
     6    2    4 am   BACKBONE|DICT|INTERRES
     7    4    5 1    
     8    4   75 1    
     9    5    6 1    
    10    5   35 1    
    11    5   76 1    
    12    6    7 1    
    13    6   77 1    
    14    6   78 1    
    15    7    8 1    
    16    8    9 1    
    17    8   79 1    
    18    8   80 1    
    19    9   10 ar   
    20    9   14 ar   
    21   10   11 ar   
    22   10   81 1    
    23   11   12 ar   
    24   11   71 1    
    25   12   13 ar   
    26   12   82 1    
    27   13   14 ar   
    28   13   15 1    
    29   14   83 1    
    30   15   16 1    
    31   15   84 1    
    32   15   85 1    
    33   16   17 1    
    34   17   18 1    
    35   17   86 1    
    36   17   87 1    
    37   18   19 1    
    38   18   37 1    
    39   18   88 1    
    40   19   20 am   BACKBONE|DICT|INTERRES
    41   19   89 1    
    42   20   21 2    
    43   20   22 1    
    44   22   23 1    
    45   22   24 1    
    46   22   90 1    
    47   23   91 1    
    48   23   92 1    
    49   23   93 1    
    50   24   25 am   BACKBONE|DICT|INTERRES
    51   24   94 1    
    52   25   26 2    
    53   25   27 1    
    54   27   28 1    
    55   27   29 1    
    56   27   95 1    
    57   28   96 1    
    58   28   97 1    
    59   28   98 1    
    60   29   30 am   BACKBONE|DICT|INTERRES
    61   29   99 1    
    62   30   31 2    
    63   30   32 1    
    64   32   33 1    
    65   32   34 1    
    66   32  100 1    
    67   33  101 1    
    68   33  102 1    
    69   33  103 1    
    70   34   35 am   BACKBONE|DICT|INTERRES
    71   34  104 1    
    72   35   36 2    
    73   37   38 2    
    74   37   39 am   BACKBONE|DICT|INTERRES
    75   39   40 1    
    76   39  105 1    
    77   40   41 1    
    78   40   42 1    
    79   40  106 1    
    80   41  107 1    
    81   41  108 1    
    82   41  109 1    
    83   42   43 2    
    84   42   44 am   BACKBONE|DICT|INTERRES
    85   44   45 1    
    86   44  110 1    
    87   45   46 1    
    88   45   47 1    
    89   45  111 1    
    90   46  112 1    
    91   46  113 1    
    92   46  114 1    
    93   47   48 2    
    94   47   49 am   BACKBONE|DICT|INTERRES
    95   49   50 1    
    96   49  115 1    
    97   50   51 1    
    98   50   52 1    
    99   50  116 1    
   100   51  117 1    
   101   51  118 1    
   102   51  119 1    
   103   52   53 2    
   104   52   54 am   BACKBONE|DICT|INTERRES
   105   54   55 1    
   106   54  120 1    
   107   55   56 1    
   108   55   57 1    
   109   55  121 1    
   110   56  122 1    
   111   56  123 1    
   112   56  124 1    
   113   57   58 2    
   114   57   59 am   BACKBONE|DICT|INTERRES
   115   59   60 1    
   116   59  125 1    
   117   60   61 1    
   118   60   62 1    
   119   60  126 1    
   120   61  127 1    
   121   61  128 1    
   122   61  129 1    
   123   62   63 2    
   124   62   64 am   BACKBONE|DICT|INTERRES
   125   64   65 1    
   126   64  130 1    
   127   65   66 1    
   128   65   69 1    
   129   65  131 1    
   130   66   67 am   BACKBONE|DICT|INTERRES
   131   66   68 2    
   132   67  132 1    
   133   67  133 1    
   134   69   70 1    
   135   69  134 1    
   136   69  135 1    
   137   70   71 1    
   138   71  136 1    
   139   71  137 1    
@<TRIPOS>SUBSTRUCTURE
     1 UNK         1 GROUP             0       ****    0 ROOT    
