@<TRIPOS>MOLECULE
3R136
137   139    1
SMALL
USER_CHARGES


@<TRIPOS>ATOM
      1 CA         26.2039   22.9955    2.7378 C.3       0 UNK        -0.1979 
      2 C          27.0548   21.8742    2.1599 C.2       0 UNK         0.4864 
      3 O          27.2971   20.8773    2.8411 O.2       0 UNK        -0.5359 
      4 N          27.4957   22.0304    0.9071 N.am      1 UNK        -0.4318 
      5 CA         28.2940   21.0567    0.1514 C.3       1 UNK         0.0824 
      6 C6         29.7099   21.5898   -0.2145 C.3       12 UNK        -0.0944 
      7 S7         30.6458   22.2387    1.2122 S.3       12 UNK        -0.2672 
      8 C8         30.4858   24.0230    0.8872 C.3       12 UNK         0.0333 
      9 C9         30.6655   24.8581    2.1436 C.ar      12 UNK        -0.0807 
     10 C10        31.7500   25.7303    2.2762 C.ar      12 UNK        -0.0894 
     11 C11        31.8544   26.5649    3.3939 C.ar      12 UNK        -0.0804 
     12 C12        30.8583   26.5312    4.3752 C.ar      12 UNK        -0.0824 
     13 C13        29.7728   25.6582    4.2535 C.ar      12 UNK        -0.0762 
     14 C14        29.6961   24.8088    3.1475 C.ar      12 UNK        -0.0782 
     15 C15        28.6539   25.6648    5.2864 C.3       12 UNK         0.0230 
     16 S16        27.0595   26.1853    4.5639 S.3       12 UNK        -0.2608 
     17 C17        27.4883   27.8013    3.8322 C.3       12 UNK        -0.0989 
     18 CA         27.7138   27.7096    2.3007 C.3       5 UNK         0.0716 
     19 N          26.4947   27.3245    1.5856 N.am      5 UNK        -0.4135 
     20 C          26.4175   27.0411    0.2788 C.2       4 UNK         0.5031 
     21 O          27.3720   27.0974   -0.5012 O.2       4 UNK        -0.5229 
     22 CA         25.0199   26.6489   -0.2380 C.3       4 UNK         0.0329 
     23 CB         24.1839   27.9076   -0.5252 C.3       4 UNK        -0.2001 
     24 N          25.0577   25.8208   -1.4482 N.am      4 UNK        -0.4303 
     25 C          25.5936   24.5963   -1.5293 C.2       3 UNK         0.5044 
     26 O          26.1310   24.0138   -0.5819 O.2       3 UNK        -0.5152 
     27 CA         25.5329   23.9190   -2.9119 C.3       3 UNK         0.0319 
     28 CB         26.6862   24.4124   -3.8004 C.3       3 UNK        -0.2001 
     29 N          25.6350   22.4666   -2.7789 N.am      3 UNK        -0.4354 
     30 C          24.6650   21.6602   -2.3305 C.2       2 UNK         0.4964 
     31 O          23.4872   22.0019   -2.2174 O.2       2 UNK        -0.5047 
     32 CA         25.0951   20.2564   -1.8610 C.3       2 UNK         0.0288 
     33 CB         25.3848   19.3103   -3.0441 C.3       2 UNK        -0.2113 
     34 N          26.2020   20.3163   -0.8902 N.am      2 UNK        -0.4145 
     35 C          27.4777   20.6825   -1.1010 C.2       1 UNK         0.5006 
     36 O          27.9625   20.8373   -2.2243 O.2       1 UNK        -0.5103 
     37 C          28.3011   29.0301    1.7727 C.2       5 UNK         0.5055 
     38 O          27.5798   30.0267    1.6776 O.2       5 UNK        -0.5220 
     39 N          29.6117   29.0290    1.4967 N.am      6 UNK        -0.4450 
     40 CA         30.3822   30.2037    1.0888 C.3       6 UNK         0.0367 
     41 CB         31.5934   29.7547    0.2513 C.3       6 UNK        -0.1929 
     42 C          30.7867   31.0290    2.3215 C.2       6 UNK         0.5070 
     43 O          31.9707   31.1214    2.6508 O.2       6 UNK        -0.5237 
     44 N          29.7867   31.6123    2.9943 N.am      7 UNK        -0.4739 
     45 CA         29.9295   32.4023    4.2239 C.3       7 UNK         0.0276 
     46 CB         28.5326   32.7582    4.7564 C.3       7 UNK        -0.1927 
     47 C          30.7909   33.6705    4.0719 C.2       7 UNK         0.5013 
     48 O          31.3484   34.1388    5.0642 O.2       7 UNK        -0.5193 
     49 N          30.9052   34.1856    2.8389 N.am      8 UNK        -0.4253 
     50 CA         31.8042   35.2822    2.4712 C.3       8 UNK         0.0242 
     51 CB         31.4477   35.7827    1.0620 C.3       8 UNK        -0.2000 
     52 C          33.2921   34.8900    2.5449 C.2       8 UNK         0.4948 
     53 O          34.1205   35.7459    2.8583 O.2       8 UNK        -0.5275 
     54 N          33.6026   33.6156    2.2652 N.am      9 UNK        -0.4246 
     55 CA         34.9342   33.0328    2.4379 C.3       9 UNK         0.0261 
     56 CB         35.1449   31.9011    1.4167 C.3       9 UNK        -0.1959 
     57 C          35.1161   32.5191    3.8746 C.2       9 UNK         0.5033 
     58 O          36.1480   32.8034    4.4846 O.2       9 UNK        -0.5390 
     59 N          34.0909   31.8097    4.3737 N.am      10 UNK        -0.4215 
     60 CA         33.9501   31.1643    5.6835 C.3       10 UNK         0.0240 
     61 CB         34.1670   32.1559    6.8438 C.3       10 UNK        -0.1982 
     62 C          34.8261   29.9080    5.8367 C.2       10 UNK         0.4970 
     63 O          35.9613   29.8663    5.3590 O.2       10 UNK        -0.4916 
     64 N          34.2639   28.9028    6.5160 N.am      11 UNK        -0.4279 
     65 CA         34.8738   27.5838    6.7597 C.3       11 UNK         0.1003 
     66 C          34.9021   27.2033    8.2694 C.2       11 UNK         0.5709 
     67 N          34.5839   28.1053    9.1916 N.am      11 UNK        -0.7358 
     68 O          35.2397   26.0747    8.6195 O.2       11 UNK        -0.4999 
     69 C69        34.2079   26.4821    5.8865 C.3       12 UNK        -0.0954 
     70 S70        34.5360   26.6985    4.1041 S.3       12 UNK        -0.2268 
     71 C71        33.0254   27.5280    3.5195 C.3       12 UNK         0.0203 
     72 H72        26.3094   23.9189    2.1679 H         1 UNK         0.0888 
     73 H73        25.1526   22.7098    2.7346 H         1 UNK         0.0888 
     74 H74        26.4983   23.2012    3.7666 H         1 UNK         0.0888 
     75 H75        27.1688   22.8342    0.3702 H         1 UNK         0.3017 
     76 H76        28.4207   20.1379    0.7276 H         1 UNK         0.0873 
     77 H77        30.3010   20.7886   -0.6616 H         1 UNK         0.0745 
     78 H78        29.6478   22.3696   -0.9764 H         1 UNK         0.0745 
     79 H79        29.4962   24.2365    0.4788 H         1 UNK         0.0705 
     80 H80        31.2043   24.3106    0.1181 H         1 UNK         0.0705 
     81 H81        32.5067   25.7729    1.5043 H         1 UNK         0.1334 
     82 H82        30.9222   27.1939    5.2274 H         1 UNK         0.1417 
     83 H83        28.8517   24.1432    3.0421 H         1 UNK         0.1562 
     84 H84        28.8971   26.3231    6.1219 H         1 UNK         0.0748 
     85 H85        28.5447   24.6632    5.7047 H         1 UNK         0.0748 
     86 H86        28.3737   28.1925    4.3378 H         1 UNK         0.0940 
     87 H87        26.6856   28.5060    4.0586 H         1 UNK         0.0940 
     88 H88        28.4443   26.9269    2.0994 H         1 UNK         0.0703 
     89 H89        25.6570   27.2762    2.1461 H         1 UNK         0.3081 
     90 H90        24.5207   26.0668    0.5398 H         1 UNK         0.0719 
     91 H91        24.6310   28.5161   -1.3126 H         1 UNK         0.0809 
     92 H92        23.1700   27.6507   -0.8331 H         1 UNK         0.0809 
     93 H93        24.0998   28.5368    0.3620 H         1 UNK         0.0809 
     94 H94        24.6758   26.2352   -2.2856 H         1 UNK         0.2990 
     95 H95        24.5816   24.1655   -3.3883 H         1 UNK         0.0690 
     96 H96        26.6534   23.9489   -4.7866 H         1 UNK         0.0788 
     97 H97        27.6583   24.1901   -3.3575 H         1 UNK         0.0788 
     98 H98        26.6355   25.4919   -3.9484 H         1 UNK         0.0788 
     99 H99        26.5730   22.0780   -2.7955 H         1 UNK         0.2993 
    100 H100       24.2487   19.8375   -1.3139 H         1 UNK         0.0949 
    101 H101       26.1722   19.6878   -3.6966 H         1 UNK         0.0767 
    102 H102       25.6828   18.3213   -2.6959 H         1 UNK         0.0767 
    103 H103       24.4939   19.1825   -3.6603 H         1 UNK         0.0767 
    104 H104       25.9121   20.2465    0.0759 H         1 UNK         0.3013 
    105 H105       30.1367   28.1774    1.6380 H         1 UNK         0.3121 
    106 H106       29.7621   30.8410    0.4544 H         1 UNK         0.0774 
    107 H107       32.1815   30.6134   -0.0752 H         1 UNK         0.0815 
    108 H108       32.2592   29.1006    0.8122 H         1 UNK         0.0815 
    109 H109       31.2778   29.2205   -0.6450 H         1 UNK         0.0815 
    110 H110       28.8428   31.4497    2.6594 H         1 UNK         0.2987 
    111 H111       30.4261   31.7696    4.9627 H         1 UNK         0.0949 
    112 H112       28.6009   33.3209    5.6886 H         1 UNK         0.0806 
    113 H113       27.9739   33.3695    4.0465 H         1 UNK         0.0806 
    114 H114       27.9463   31.8626    4.9633 H         1 UNK         0.0806 
    115 H115       30.3847   33.7471    2.0933 H         1 UNK         0.3010 
    116 H116       31.6439   36.1007    3.1765 H         1 UNK         0.0829 
    117 H117       30.4172   36.1352    1.0143 H         1 UNK         0.0813 
    118 H118       32.0872   36.6179    0.7726 H         1 UNK         0.0813 
    119 H119       31.5722   35.0021    0.3104 H         1 UNK         0.0813 
    120 H120       32.8523   32.9663    2.0648 H         1 UNK         0.3038 
    121 H121       35.6923   33.7968    2.2512 H         1 UNK         0.0769 
    122 H122       36.1411   31.4686    1.5190 H         1 UNK         0.0811 
    123 H123       35.0550   32.2691    0.3946 H         1 UNK         0.0811 
    124 H124       34.4260   31.0913    1.5447 H         1 UNK         0.0811 
    125 H125       33.3253   31.6077    3.7312 H         1 UNK         0.3204 
    126 H126       32.9073   30.8444    5.7189 H         1 UNK         0.0748 
    127 H127       33.9007   31.7030    7.7993 H         1 UNK         0.0771 
    128 H128       35.2065   32.4762    6.9189 H         1 UNK         0.0771 
    129 H129       33.5488   33.0460    6.7234 H         1 UNK         0.0771 
    130 H130       33.3378   29.0240    6.8994 H         1 UNK         0.2980 
    131 H131       35.9294   27.6221    6.4856 H         1 UNK         0.0545 
    132 H132       34.6157   27.8416   10.1640 H         1 UNK         0.3459 
    133 H133       34.3551   29.0517    8.9358 H         1 UNK         0.3459 
    134 H134       34.5955   25.4962    6.1484 H         1 UNK         0.0616 
    135 H135       33.1345   26.4388    6.0712 H         1 UNK         0.0616 
    136 H136       32.7744   28.3606    4.1770 H         1 UNK         0.0634 
    137 H137       33.2390   27.9695    2.5467 H         1 UNK         0.0634 
@<TRIPOS>BOND
     1    1    2 1    
     2    1   72 1    
     3    1   73 1    
     4    1   74 1    
     5    2    3 2    
     6    2    4 am   BACKBONE|DICT|INTERRES
     7    4    5 1    
     8    4   75 1    
     9    5    6 1    
    10    5   35 1    
    11    5   76 1    
    12    6    7 1    
    13    6   77 1    
    14    6   78 1    
    15    7    8 1    
    16    8    9 1    
    17    8   79 1    
    18    8   80 1    
    19    9   10 ar   
    20    9   14 ar   
    21   10   11 ar   
    22   10   81 1    
    23   11   12 ar   
    24   11   71 1    
    25   12   13 ar   
    26   12   82 1    
    27   13   14 ar   
    28   13   15 1    
    29   14   83 1    
    30   15   16 1    
    31   15   84 1    
    32   15   85 1    
    33   16   17 1    
    34   17   18 1    
    35   17   86 1    
    36   17   87 1    
    37   18   19 1    
    38   18   37 1    
    39   18   88 1    
    40   19   20 am   BACKBONE|DICT|INTERRES
    41   19   89 1    
    42   20   21 2    
    43   20   22 1    
    44   22   23 1    
    45   22   24 1    
    46   22   90 1    
    47   23   91 1    
    48   23   92 1    
    49   23   93 1    
    50   24   25 am   BACKBONE|DICT|INTERRES
    51   24   94 1    
    52   25   26 2    
    53   25   27 1    
    54   27   28 1    
    55   27   29 1    
    56   27   95 1    
    57   28   96 1    
    58   28   97 1    
    59   28   98 1    
    60   29   30 am   BACKBONE|DICT|INTERRES
    61   29   99 1    
    62   30   31 2    
    63   30   32 1    
    64   32   33 1    
    65   32   34 1    
    66   32  100 1    
    67   33  101 1    
    68   33  102 1    
    69   33  103 1    
    70   34   35 am   BACKBONE|DICT|INTERRES
    71   34  104 1    
    72   35   36 2    
    73   37   38 2    
    74   37   39 am   BACKBONE|DICT|INTERRES
    75   39   40 1    
    76   39  105 1    
    77   40   41 1    
    78   40   42 1    
    79   40  106 1    
    80   41  107 1    
    81   41  108 1    
    82   41  109 1    
    83   42   43 2    
    84   42   44 am   BACKBONE|DICT|INTERRES
    85   44   45 1    
    86   44  110 1    
    87   45   46 1    
    88   45   47 1    
    89   45  111 1    
    90   46  112 1    
    91   46  113 1    
    92   46  114 1    
    93   47   48 2    
    94   47   49 am   BACKBONE|DICT|INTERRES
    95   49   50 1    
    96   49  115 1    
    97   50   51 1    
    98   50   52 1    
    99   50  116 1    
   100   51  117 1    
   101   51  118 1    
   102   51  119 1    
   103   52   53 2    
   104   52   54 am   BACKBONE|DICT|INTERRES
   105   54   55 1    
   106   54  120 1    
   107   55   56 1    
   108   55   57 1    
   109   55  121 1    
   110   56  122 1    
   111   56  123 1    
   112   56  124 1    
   113   57   58 2    
   114   57   59 am   BACKBONE|DICT|INTERRES
   115   59   60 1    
   116   59  125 1    
   117   60   61 1    
   118   60   62 1    
   119   60  126 1    
   120   61  127 1    
   121   61  128 1    
   122   61  129 1    
   123   62   63 2    
   124   62   64 am   BACKBONE|DICT|INTERRES
   125   64   65 1    
   126   64  130 1    
   127   65   66 1    
   128   65   69 1    
   129   65  131 1    
   130   66   67 am   BACKBONE|DICT|INTERRES
   131   66   68 2    
   132   67  132 1    
   133   67  133 1    
   134   69   70 1    
   135   69  134 1    
   136   69  135 1    
   137   70   71 1    
   138   71  136 1    
   139   71  137 1    
@<TRIPOS>SUBSTRUCTURE
     1 UNK         1 GROUP             0       ****    0 ROOT    
