@<TRIPOS>MOLECULE
3R136
137   139    1
SMALL
USER_CHARGES


@<TRIPOS>ATOM
      1 CA         27.5544   19.8051    2.0306 C.3       0 UNK        -0.1979 
      2 C          28.2414   20.1948    0.7300 C.2       0 UNK         0.4864 
      3 O          29.0936   19.4520    0.2406 O.2       0 UNK        -0.5359 
      4 N          27.8798   21.3531    0.1715 N.am      1 UNK        -0.4318 
      5 CA         28.4191   21.9082   -1.0680 C.3       1 UNK         0.0824 
      6 C6         29.8363   22.5251   -0.8995 C.3       12 UNK        -0.0944 
      7 S7         29.9696   23.7980    0.4092 S.3       12 UNK        -0.2672 
      8 C8         30.8983   22.8632    1.6626 C.3       12 UNK         0.0333 
      9 C9         31.1678   23.6951    2.9053 C.ar      12 UNK        -0.0807 
     10 C10        32.4242   24.2715    3.1105 C.ar      12 UNK        -0.0894 
     11 C11        32.6927   24.9934    4.2776 C.ar      12 UNK        -0.0804 
     12 C12        31.6845   25.1518    5.2350 C.ar      12 UNK        -0.0824 
     13 C13        30.4253   24.5719    5.0467 C.ar      12 UNK        -0.0762 
     14 C14        30.1758   23.8432    3.8779 C.ar      12 UNK        -0.0782 
     15 C15        29.3732   24.6616    6.1480 C.3       12 UNK         0.0230 
     16 S16        27.7078   25.0674    5.5304 S.3       12 UNK        -0.2608 
     17 C17        27.8106   26.8739    5.2946 C.3       12 UNK        -0.0989 
     18 CA         28.1875   27.3076    3.8513 C.3       5 UNK         0.0716 
     19 N          27.4268   26.6373    2.7856 N.am      5 UNK        -0.4135 
     20 C          26.0999   26.6271    2.5909 C.2       4 UNK         0.5031 
     21 O          25.2919   27.1534    3.3596 O.2       4 UNK        -0.5229 
     22 CA         25.6049   25.9806    1.2819 C.3       4 UNK         0.0329 
     23 CB         24.1849   26.4439    0.8953 C.3       4 UNK        -0.2001 
     24 N          26.5178   26.1703    0.1460 N.am      4 UNK        -0.4303 
     25 C          27.0060   27.3304   -0.3292 C.2       3 UNK         0.5044 
     26 O          26.7949   28.4291    0.1882 O.2       3 UNK        -0.5152 
     27 CA         27.9117   27.2614   -1.5750 C.3       3 UNK         0.0319 
     28 CB         29.3836   27.4624   -1.1778 C.3       3 UNK        -0.2001 
     29 N          27.7879   26.0085   -2.3227 N.am      3 UNK        -0.4354 
     30 C          26.7222   25.6562   -3.0573 C.2       2 UNK         0.4964 
     31 O          25.7629   26.3981   -3.2696 O.2       2 UNK        -0.5047 
     32 CA         26.7071   24.2269   -3.6340 C.3       2 UNK         0.0288 
     33 CB         27.1146   24.2424   -5.1166 C.3       2 UNK        -0.2113 
     34 N          27.5554   23.2688   -2.9120 N.am      2 UNK        -0.4145 
     35 C          27.4035   22.9170   -1.6265 C.2       1 UNK         0.5006 
     36 O          26.5312   23.3827   -0.8860 O.2       1 UNK        -0.5103 
     37 C          28.1534   28.8491    3.7328 C.2       5 UNK         0.5055 
     38 O          29.2003   29.4882    3.8394 O.2       5 UNK        -0.5220 
     39 N          26.9600   29.4186    3.5224 N.am      6 UNK        -0.4450 
     40 CA         26.6605   30.8502    3.4961 C.3       6 UNK         0.0367 
     41 CB         25.1480   31.0456    3.3056 C.3       6 UNK        -0.1929 
     42 C          27.4409   31.6505    2.4428 C.2       6 UNK         0.5070 
     43 O          27.8983   32.7502    2.7541 O.2       6 UNK        -0.5237 
     44 N          27.5930   31.1007    1.2287 N.am      7 UNK        -0.4739 
     45 CA         28.3516   31.7498    0.1526 C.3       7 UNK         0.0276 
     46 CB         27.8579   31.2505   -1.2135 C.3       7 UNK        -0.1927 
     47 C          29.8705   31.5509    0.2940 C.2       7 UNK         0.5013 
     48 O          30.6296   32.3357   -0.2757 O.2       7 UNK        -0.5193 
     49 N          30.2887   30.5215    1.0455 N.am      8 UNK        -0.4253 
     50 CA         31.6887   30.2764    1.3969 C.3       8 UNK         0.0242 
     51 CB         31.8888   28.7977    1.7628 C.3       8 UNK        -0.2000 
     52 C          32.1454   31.2028    2.5364 C.2       8 UNK         0.4948 
     53 O          33.2617   31.7186    2.4777 O.2       8 UNK        -0.5275 
     54 N          31.2546   31.4199    3.5184 N.am      9 UNK        -0.4246 
     55 CA         31.3595   32.3637    4.6369 C.3       9 UNK         0.0261 
     56 CB         31.2956   33.8169    4.1194 C.3       9 UNK        -0.1959 
     57 C          32.5791   32.0942    5.5385 C.2       9 UNK         0.5033 
     58 O          33.3599   33.0108    5.8021 O.2       9 UNK        -0.5390 
     59 N          32.6943   30.8351    5.9902 N.am      10 UNK        -0.4215 
     60 CA         33.7837   30.2486    6.7826 C.3       10 UNK         0.0240 
     61 CB         33.9840   30.9788    8.1283 C.3       10 UNK        -0.1982 
     62 C          35.0800   30.1562    5.9587 C.2       10 UNK         0.4970 
     63 O          35.8453   31.1197    5.8922 O.2       10 UNK        -0.4916 
     64 N          35.2700   28.9918    5.3264 N.am      11 UNK        -0.4279 
     65 CA         36.3803   28.6469    4.4242 C.3       11 UNK         0.1003 
     66 C          37.7907   28.9078    5.0245 C.2       11 UNK         0.5709 
     67 N          38.7203   29.4229    4.2311 N.am      11 UNK        -0.7358 
     68 O          38.0585   28.5991    6.1847 O.2       11 UNK        -0.4999 
     69 C69        36.2806   27.1729    3.9461 C.3       12 UNK        -0.0954 
     70 S70        34.6397   26.7241    3.2834 S.3       12 UNK        -0.2268 
     71 C71        34.0933   25.5292    4.5419 C.3       12 UNK         0.0203 
     72 H72        28.2927   19.6880    2.8235 H         1 UNK         0.0888 
     73 H73        26.8312   20.5555    2.3498 H         1 UNK         0.0888 
     74 H74        27.0298   18.8578    1.9093 H         1 UNK         0.0888 
     75 H75        27.1452   21.9218    0.5752 H         1 UNK         0.3017 
     76 H76        28.4802   21.0956   -1.7954 H         1 UNK         0.0873 
     77 H77        30.1771   22.9682   -1.8368 H         1 UNK         0.0745 
     78 H78        30.5500   21.7255   -0.6956 H         1 UNK         0.0745 
     79 H79        30.3390   21.9683    1.9377 H         1 UNK         0.0705 
     80 H80        31.8380   22.5167    1.2295 H         1 UNK         0.0705 
     81 H81        33.2045   24.1395    2.3731 H         1 UNK         0.1334 
     82 H82        31.8934   25.6913    6.1488 H         1 UNK         0.1417 
     83 H83        29.2123   23.3744    3.7307 H         1 UNK         0.1562 
     84 H84        29.6618   25.3841    6.9129 H         1 UNK         0.0748 
     85 H85        29.3253   23.6936    6.6484 H         1 UNK         0.0748 
     86 H86        28.5223   27.2886    6.0111 H         1 UNK         0.0940 
     87 H87        26.8391   27.2856    5.5753 H         1 UNK         0.0940 
     88 H88        29.2249   27.0114    3.6859 H         1 UNK         0.0703 
     89 H89        27.9927   26.1887    2.0801 H         1 UNK         0.3081 
     90 H90        25.5663   24.9064    1.4689 H         1 UNK         0.0719 
     91 H91        24.1436   27.5221    0.7362 H         1 UNK         0.0809 
     92 H92        23.8455   25.9569   -0.0190 H         1 UNK         0.0809 
     93 H93        23.4643   26.2006    1.6772 H         1 UNK         0.0809 
     94 H94        26.7481   25.3165   -0.3525 H         1 UNK         0.2990 
     95 H95        27.6172   28.0774   -2.2375 H         1 UNK         0.0690 
     96 H96        30.0311   27.4933   -2.0541 H         1 UNK         0.0788 
     97 H97        29.7402   26.6660   -0.5243 H         1 UNK         0.0788 
     98 H98        29.5218   28.4022   -0.6444 H         1 UNK         0.0788 
     99 H99        28.5376   25.3412   -2.2154 H         1 UNK         0.2993 
    100 H100       25.6775   23.8687   -3.5649 H         1 UNK         0.0949 
    101 H101       27.0116   23.2552   -5.5678 H         1 UNK         0.0767 
    102 H102       26.4830   24.9240   -5.6885 H         1 UNK         0.0767 
    103 H103       28.1475   24.5677   -5.2482 H         1 UNK         0.0767 
    104 H104       28.2987   22.8420   -3.4468 H         1 UNK         0.3013 
    105 H105       26.1674   28.7851    3.4406 H         1 UNK         0.3121 
    106 H106       26.9341   31.2510    4.4743 H         1 UNK         0.0774 
    107 H107       24.8876   32.1051    3.2981 H         1 UNK         0.0815 
    108 H108       24.8026   30.6168    2.3638 H         1 UNK         0.0815 
    109 H109       24.5825   30.5797    4.1129 H         1 UNK         0.0815 
    110 H110       27.1912   30.1873    1.0290 H         1 UNK         0.2987 
    111 H111       28.1636   32.8254    0.1932 H         1 UNK         0.0949 
    112 H112       28.0971   30.2013   -1.3694 H         1 UNK         0.0806 
    113 H113       26.7793   31.3696   -1.3168 H         1 UNK         0.0806 
    114 H114       28.3264   31.8111   -2.0234 H         1 UNK         0.0806 
    115 H115       29.5911   29.9606    1.5133 H         1 UNK         0.3010 
    116 H116       32.3085   30.4895    0.5229 H         1 UNK         0.0829 
    117 H117       31.5643   28.1373    0.9589 H         1 UNK         0.0813 
    118 H118       32.9452   28.5970    1.9349 H         1 UNK         0.0813 
    119 H119       31.3531   28.5148    2.6688 H         1 UNK         0.0813 
    120 H120       30.4029   30.8617    3.5066 H         1 UNK         0.3038 
    121 H121       30.4764   32.2003    5.2568 H         1 UNK         0.0769 
    122 H122       31.2682   34.5262    4.9474 H         1 UNK         0.0811 
    123 H123       30.3998   33.9834    3.5206 H         1 UNK         0.0811 
    124 H124       32.1609   34.0665    3.5044 H         1 UNK         0.0811 
    125 H125       31.9881   30.1802    5.6829 H         1 UNK         0.3204 
    126 H126       33.4677   29.2320    7.0235 H         1 UNK         0.0748 
    127 H127       34.7225   30.4604    8.7409 H         1 UNK         0.0771 
    128 H128       34.3394   32.0011    7.9973 H         1 UNK         0.0771 
    129 H129       33.0568   31.0176    8.7001 H         1 UNK         0.0771 
    130 H130       34.5791   28.2663    5.4360 H         1 UNK         0.2980 
    131 H131       36.2641   29.2909    3.5504 H         1 UNK         0.0545 
    132 H132       38.5146   29.6650    3.2742 H         1 UNK         0.3459 
    133 H133       39.6450   29.5818    4.5997 H         1 UNK         0.3459 
    134 H134       37.0127   26.9864    3.1582 H         1 UNK         0.0616 
    135 H135       36.5377   26.4903    4.7587 H         1 UNK         0.0616 
    136 H136       34.1460   25.9996    5.5249 H         1 UNK         0.0634 
    137 H137       34.7911   24.6908    4.5626 H         1 UNK         0.0634 
@<TRIPOS>BOND
     1    1    2 1    
     2    1   72 1    
     3    1   73 1    
     4    1   74 1    
     5    2    3 2    
     6    2    4 am   BACKBONE|DICT|INTERRES
     7    4    5 1    
     8    4   75 1    
     9    5    6 1    
    10    5   35 1    
    11    5   76 1    
    12    6    7 1    
    13    6   77 1    
    14    6   78 1    
    15    7    8 1    
    16    8    9 1    
    17    8   79 1    
    18    8   80 1    
    19    9   10 ar   
    20    9   14 ar   
    21   10   11 ar   
    22   10   81 1    
    23   11   12 ar   
    24   11   71 1    
    25   12   13 ar   
    26   12   82 1    
    27   13   14 ar   
    28   13   15 1    
    29   14   83 1    
    30   15   16 1    
    31   15   84 1    
    32   15   85 1    
    33   16   17 1    
    34   17   18 1    
    35   17   86 1    
    36   17   87 1    
    37   18   19 1    
    38   18   37 1    
    39   18   88 1    
    40   19   20 am   BACKBONE|DICT|INTERRES
    41   19   89 1    
    42   20   21 2    
    43   20   22 1    
    44   22   23 1    
    45   22   24 1    
    46   22   90 1    
    47   23   91 1    
    48   23   92 1    
    49   23   93 1    
    50   24   25 am   BACKBONE|DICT|INTERRES
    51   24   94 1    
    52   25   26 2    
    53   25   27 1    
    54   27   28 1    
    55   27   29 1    
    56   27   95 1    
    57   28   96 1    
    58   28   97 1    
    59   28   98 1    
    60   29   30 am   BACKBONE|DICT|INTERRES
    61   29   99 1    
    62   30   31 2    
    63   30   32 1    
    64   32   33 1    
    65   32   34 1    
    66   32  100 1    
    67   33  101 1    
    68   33  102 1    
    69   33  103 1    
    70   34   35 am   BACKBONE|DICT|INTERRES
    71   34  104 1    
    72   35   36 2    
    73   37   38 2    
    74   37   39 am   BACKBONE|DICT|INTERRES
    75   39   40 1    
    76   39  105 1    
    77   40   41 1    
    78   40   42 1    
    79   40  106 1    
    80   41  107 1    
    81   41  108 1    
    82   41  109 1    
    83   42   43 2    
    84   42   44 am   BACKBONE|DICT|INTERRES
    85   44   45 1    
    86   44  110 1    
    87   45   46 1    
    88   45   47 1    
    89   45  111 1    
    90   46  112 1    
    91   46  113 1    
    92   46  114 1    
    93   47   48 2    
    94   47   49 am   BACKBONE|DICT|INTERRES
    95   49   50 1    
    96   49  115 1    
    97   50   51 1    
    98   50   52 1    
    99   50  116 1    
   100   51  117 1    
   101   51  118 1    
   102   51  119 1    
   103   52   53 2    
   104   52   54 am   BACKBONE|DICT|INTERRES
   105   54   55 1    
   106   54  120 1    
   107   55   56 1    
   108   55   57 1    
   109   55  121 1    
   110   56  122 1    
   111   56  123 1    
   112   56  124 1    
   113   57   58 2    
   114   57   59 am   BACKBONE|DICT|INTERRES
   115   59   60 1    
   116   59  125 1    
   117   60   61 1    
   118   60   62 1    
   119   60  126 1    
   120   61  127 1    
   121   61  128 1    
   122   61  129 1    
   123   62   63 2    
   124   62   64 am   BACKBONE|DICT|INTERRES
   125   64   65 1    
   126   64  130 1    
   127   65   66 1    
   128   65   69 1    
   129   65  131 1    
   130   66   67 am   BACKBONE|DICT|INTERRES
   131   66   68 2    
   132   67  132 1    
   133   67  133 1    
   134   69   70 1    
   135   69  134 1    
   136   69  135 1    
   137   70   71 1    
   138   71  136 1    
   139   71  137 1    
@<TRIPOS>SUBSTRUCTURE
     1 UNK         1 GROUP             0       ****    0 ROOT    
