@<TRIPOS>MOLECULE
3R136
137   139    1
SMALL
USER_CHARGES


@<TRIPOS>ATOM
      1 CA         25.5761   19.7303    0.6556 C.3       0 UNK        -0.1979 
      2 C          26.8592   20.2469    0.0220 C.2       0 UNK         0.4864 
      3 O          26.8319   20.7238   -1.1137 O.2       0 UNK        -0.5359 
      4 N          27.9832   20.1488    0.7432 N.am      1 UNK        -0.4318 
      5 CA         29.2911   20.6738    0.3415 C.3       1 UNK         0.0824 
      6 C6         30.4519   20.0772    1.1840 C.3       12 UNK        -0.0944 
      7 S7         30.1549   20.0526    2.9891 S.3       12 UNK        -0.2672 
      8 C8         31.7468   20.6375    3.6543 C.3       12 UNK         0.0333 
      9 C9         31.9523   22.1321    3.4507 C.ar      12 UNK        -0.0807 
     10 C10        33.0065   22.6011    2.6575 C.ar      12 UNK        -0.0894 
     11 C11        33.2117   23.9745    2.4943 C.ar      12 UNK        -0.0804 
     12 C12        32.3495   24.8736    3.1228 C.ar      12 UNK        -0.0824 
     13 C13        31.2931   24.4224    3.9125 C.ar      12 UNK        -0.0762 
     14 C14        31.1006   23.0485    4.0791 C.ar      12 UNK        -0.0782 
     15 C15        30.3620   25.4319    4.5628 C.3       12 UNK         0.0230 
     16 S16        29.0861   25.9673    3.3854 S.3       12 UNK        -0.2608 
     17 C17        28.2672   27.3135    4.3074 C.3       12 UNK        -0.0989 
     18 CA         28.3671   28.6902    3.5970 C.3       5 UNK         0.0716 
     19 N          27.9959   28.5767    2.1791 N.am      5 UNK        -0.4135 
     20 C          27.8290   29.5451    1.2688 C.2       4 UNK         0.5031 
     21 O          27.8872   30.7457    1.5271 O.2       4 UNK        -0.5229 
     22 CA         27.5393   29.1190   -0.1838 C.3       4 UNK         0.0329 
     23 CB         28.6704   29.5939   -1.1113 C.3       4 UNK        -0.2001 
     24 N          27.3486   27.6775   -0.3778 N.am      4 UNK        -0.4303 
     25 C          26.3201   26.9403    0.0598 C.2       3 UNK         0.5044 
     26 O          25.3818   27.4091    0.7043 O.2       3 UNK        -0.5152 
     27 CA         26.3483   25.4243   -0.2257 C.3       3 UNK         0.0319 
     28 CB         25.4955   25.0796   -1.4616 C.3       3 UNK        -0.2001 
     29 N          27.6883   24.8205   -0.3198 N.am      3 UNK        -0.4354 
     30 C          28.6532   25.0144   -1.2290 C.2       2 UNK         0.4964 
     31 O          28.5559   25.8077   -2.1650 O.2       2 UNK        -0.5047 
     32 CA         29.9701   24.2338   -1.0587 C.3       2 UNK         0.0288 
     33 CB         30.8967   24.9488   -0.0612 C.3       2 UNK        -0.2113 
     34 N          29.8365   22.8033   -0.7375 N.am      2 UNK        -0.4145 
     35 C          29.2878   22.2171    0.3383 C.2       1 UNK         0.5006 
     36 O          28.7740   22.8296    1.2778 O.2       1 UNK        -0.5103 
     37 C          27.5648   29.7370    4.4030 C.2       5 UNK         0.5055 
     38 O          28.1031   30.3184    5.3461 O.2       5 UNK        -0.5220 
     39 N          26.2899   29.9378    4.0422 N.am      6 UNK        -0.4450 
     40 CA         25.3918   30.9064    4.6736 C.3       6 UNK         0.0367 
     41 CB         23.9403   30.4456    4.4601 C.3       6 UNK        -0.1929 
     42 C          25.5739   32.3453    4.1540 C.2       6 UNK         0.5070 
     43 O          25.1293   33.2761    4.8270 O.2       6 UNK        -0.5237 
     44 N          26.1803   32.5110    2.9711 N.am      7 UNK        -0.4739 
     45 CA         26.3317   33.7938    2.2805 C.3       7 UNK         0.0276 
     46 CB         25.8247   33.6423    0.8363 C.3       7 UNK        -0.1927 
     47 C          27.7845   34.2907    2.2771 C.2       7 UNK         0.5013 
     48 O          27.9980   35.5025    2.3405 O.2       7 UNK        -0.5193 
     49 N          28.7507   33.3695    2.1902 N.am      8 UNK        -0.4253 
     50 CA         30.1819   33.6516    2.1236 C.3       8 UNK         0.0242 
     51 CB         30.6488   33.5116    0.6642 C.3       8 UNK        -0.2000 
     52 C          30.9432   32.6753    3.0242 C.2       8 UNK         0.4948 
     53 O          30.4679   31.5657    3.2762 O.2       8 UNK        -0.5275 
     54 N          32.1443   33.0815    3.4548 N.am      9 UNK        -0.4246 
     55 CA         33.0559   32.3020    4.2990 C.3       9 UNK         0.0261 
     56 CB         34.0469   33.2631    4.9829 C.3       9 UNK        -0.1959 
     57 C          33.7664   31.1731    3.5228 C.2       9 UNK         0.5033 
     58 O          34.9991   31.1198    3.4913 O.2       9 UNK        -0.5390 
     59 N          32.9745   30.2890    2.9032 N.am      10 UNK        -0.4215 
     60 CA         33.4232   29.0906    2.1940 C.3       10 UNK         0.0240 
     61 CB         32.2059   28.3927    1.5623 C.3       10 UNK        -0.1982 
     62 C          34.1773   28.1465    3.1452 C.2       10 UNK         0.4970 
     63 O          33.6620   27.8503    4.2253 O.2       10 UNK        -0.4916 
     64 N          35.3810   27.7223    2.7372 N.am      11 UNK        -0.4279 
     65 CA         36.3373   26.9440    3.5477 C.3       11 UNK         0.1003 
     66 C          36.8687   27.6870    4.8175 C.2       11 UNK         0.5709 
     67 N          36.6866   28.9961    4.9580 N.am      11 UNK        -0.7358 
     68 O          37.5026   27.0777    5.6762 O.2       11 UNK        -0.4999 
     69 C69        35.8428   25.4934    3.8425 C.3       12 UNK        -0.0954 
     70 S70        35.9725   24.3879    2.3946 S.3       12 UNK        -0.2268 
     71 C71        34.3339   24.4990    1.6099 C.3       12 UNK         0.0203 
     72 H72        24.8471   20.5363    0.7353 H         1 UNK         0.0888 
     73 H73        25.1457   18.9398    0.0415 H         1 UNK         0.0888 
     74 H74        25.7480   19.3288    1.6542 H         1 UNK         0.0888 
     75 H75        27.9476   19.7823    1.6842 H         1 UNK         0.3017 
     76 H76        29.4524   20.3484   -0.6889 H         1 UNK         0.0873 
     77 H77        31.3887   20.5938    0.9663 H         1 UNK         0.0745 
     78 H78        30.6165   19.0433    0.8771 H         1 UNK         0.0745 
     79 H79        32.5580   20.0623    3.2050 H         1 UNK         0.0705 
     80 H80        31.7776   20.4228    4.7234 H         1 UNK         0.0705 
     81 H81        33.6708   21.9013    2.1690 H         1 UNK         0.1334 
     82 H82        32.4840   25.9334    2.9845 H         1 UNK         0.1417 
     83 H83        30.2794   22.6894    4.6844 H         1 UNK         0.1562 
     84 H84        30.9352   26.2975    4.9003 H         1 UNK         0.0748 
     85 H85        29.8874   25.0039    5.4470 H         1 UNK         0.0748 
     86 H86        28.6875   27.3758    5.3134 H         1 UNK         0.0940 
     87 H87        27.2221   27.0242    4.4376 H         1 UNK         0.0940 
     88 H88        29.4107   29.0100    3.6141 H         1 UNK         0.0703 
     89 H89        27.9301   27.6259    1.8469 H         1 UNK         0.3081 
     90 H90        26.6169   29.6208   -0.4829 H         1 UNK         0.0719 
     91 H91        28.4464   29.3742   -2.1554 H         1 UNK         0.0809 
     92 H92        28.8166   30.6725   -1.0340 H         1 UNK         0.0809 
     93 H93        29.6200   29.1175   -0.8641 H         1 UNK         0.0809 
     94 H94        28.0314   27.1994   -0.9581 H         1 UNK         0.2990 
     95 H95        25.8810   24.9456    0.6363 H         1 UNK         0.0690 
     96 H96        24.4708   25.4324   -1.3375 H         1 UNK         0.0788 
     97 H97        25.4503   24.0022   -1.6225 H         1 UNK         0.0788 
     98 H98        25.8876   25.5388   -2.3695 H         1 UNK         0.0788 
     99 H99        27.9228   24.1677    0.4283 H         1 UNK         0.2993 
    100 H100       30.4632   24.2650   -2.0319 H         1 UNK         0.0949 
    101 H101       30.4987   24.9180    0.9525 H         1 UNK         0.0767 
    102 H102       31.8844   24.4903   -0.0488 H         1 UNK         0.0767 
    103 H103       31.0279   25.9980   -0.3287 H         1 UNK         0.0767 
    104 H104       30.1861   22.1891   -1.4602 H         1 UNK         0.3013 
    105 H105       25.9231   29.4139    3.2600 H         1 UNK         0.3121 
    106 H106       25.5866   30.9208    5.7483 H         1 UNK         0.0774 
    107 H107       23.6788   30.4099    3.4017 H         1 UNK         0.0815 
    108 H108       23.2391   31.1261    4.9455 H         1 UNK         0.0815 
    109 H109       23.7715   29.4550    4.8827 H         1 UNK         0.0815 
    110 H110       26.5935   31.7047    2.5103 H         1 UNK         0.2987 
    111 H111       25.7273   34.5620    2.7680 H         1 UNK         0.0949 
    112 H112       26.3895   32.8881    0.2863 H         1 UNK         0.0806 
    113 H113       24.7734   33.3551    0.8145 H         1 UNK         0.0806 
    114 H114       25.9152   34.5819    0.2894 H         1 UNK         0.0806 
    115 H115       28.5035   32.3817    2.1520 H         1 UNK         0.3010 
    116 H116       30.3849   34.6658    2.4744 H         1 UNK         0.0829 
    117 H117       30.1270   34.2135    0.0134 H         1 UNK         0.0813 
    118 H118       31.7164   33.7137    0.5685 H         1 UNK         0.0813 
    119 H119       30.4697   32.5055    0.2816 H         1 UNK         0.0813 
    120 H120       32.4796   33.9880    3.1608 H         1 UNK         0.3038 
    121 H121       32.4688   31.8217    5.0851 H         1 UNK         0.0769 
    122 H122       34.6724   33.7832    4.2563 H         1 UNK         0.0811 
    123 H123       34.7122   32.7230    5.6581 H         1 UNK         0.0811 
    124 H124       33.5266   34.0138    5.5781 H         1 UNK         0.0811 
    125 H125       31.9714   30.4347    2.9901 H         1 UNK         0.3204 
    126 H126       34.0950   29.4101    1.3946 H         1 UNK         0.0748 
    127 H127       32.5112   27.5108    0.9986 H         1 UNK         0.0771 
    128 H128       31.4871   28.0689    2.3166 H         1 UNK         0.0771 
    129 H129       31.6842   29.0542    0.8702 H         1 UNK         0.0771 
    130 H130       35.7309   28.0359    1.8435 H         1 UNK         0.2980 
    131 H131       37.2281   26.8579    2.9247 H         1 UNK         0.0545 
    132 H132       37.0558   29.4524    5.7766 H         1 UNK         0.3459 
    133 H133       36.1654   29.5358    4.2776 H         1 UNK         0.3459 
    134 H134       36.4560   25.0231    4.6124 H         1 UNK         0.0616 
    135 H135       34.8302   25.4866    4.2435 H         1 UNK         0.0616 
    136 H136       34.3551   23.9241    0.6831 H         1 UNK         0.0634 
    137 H137       34.1464   25.5325    1.3173 H         1 UNK         0.0634 
@<TRIPOS>BOND
     1    1    2 1    
     2    1   72 1    
     3    1   73 1    
     4    1   74 1    
     5    2    3 2    
     6    2    4 am   BACKBONE|DICT|INTERRES
     7    4    5 1    
     8    4   75 1    
     9    5    6 1    
    10    5   35 1    
    11    5   76 1    
    12    6    7 1    
    13    6   77 1    
    14    6   78 1    
    15    7    8 1    
    16    8    9 1    
    17    8   79 1    
    18    8   80 1    
    19    9   10 ar   
    20    9   14 ar   
    21   10   11 ar   
    22   10   81 1    
    23   11   12 ar   
    24   11   71 1    
    25   12   13 ar   
    26   12   82 1    
    27   13   14 ar   
    28   13   15 1    
    29   14   83 1    
    30   15   16 1    
    31   15   84 1    
    32   15   85 1    
    33   16   17 1    
    34   17   18 1    
    35   17   86 1    
    36   17   87 1    
    37   18   19 1    
    38   18   37 1    
    39   18   88 1    
    40   19   20 am   BACKBONE|DICT|INTERRES
    41   19   89 1    
    42   20   21 2    
    43   20   22 1    
    44   22   23 1    
    45   22   24 1    
    46   22   90 1    
    47   23   91 1    
    48   23   92 1    
    49   23   93 1    
    50   24   25 am   BACKBONE|DICT|INTERRES
    51   24   94 1    
    52   25   26 2    
    53   25   27 1    
    54   27   28 1    
    55   27   29 1    
    56   27   95 1    
    57   28   96 1    
    58   28   97 1    
    59   28   98 1    
    60   29   30 am   BACKBONE|DICT|INTERRES
    61   29   99 1    
    62   30   31 2    
    63   30   32 1    
    64   32   33 1    
    65   32   34 1    
    66   32  100 1    
    67   33  101 1    
    68   33  102 1    
    69   33  103 1    
    70   34   35 am   BACKBONE|DICT|INTERRES
    71   34  104 1    
    72   35   36 2    
    73   37   38 2    
    74   37   39 am   BACKBONE|DICT|INTERRES
    75   39   40 1    
    76   39  105 1    
    77   40   41 1    
    78   40   42 1    
    79   40  106 1    
    80   41  107 1    
    81   41  108 1    
    82   41  109 1    
    83   42   43 2    
    84   42   44 am   BACKBONE|DICT|INTERRES
    85   44   45 1    
    86   44  110 1    
    87   45   46 1    
    88   45   47 1    
    89   45  111 1    
    90   46  112 1    
    91   46  113 1    
    92   46  114 1    
    93   47   48 2    
    94   47   49 am   BACKBONE|DICT|INTERRES
    95   49   50 1    
    96   49  115 1    
    97   50   51 1    
    98   50   52 1    
    99   50  116 1    
   100   51  117 1    
   101   51  118 1    
   102   51  119 1    
   103   52   53 2    
   104   52   54 am   BACKBONE|DICT|INTERRES
   105   54   55 1    
   106   54  120 1    
   107   55   56 1    
   108   55   57 1    
   109   55  121 1    
   110   56  122 1    
   111   56  123 1    
   112   56  124 1    
   113   57   58 2    
   114   57   59 am   BACKBONE|DICT|INTERRES
   115   59   60 1    
   116   59  125 1    
   117   60   61 1    
   118   60   62 1    
   119   60  126 1    
   120   61  127 1    
   121   61  128 1    
   122   61  129 1    
   123   62   63 2    
   124   62   64 am   BACKBONE|DICT|INTERRES
   125   64   65 1    
   126   64  130 1    
   127   65   66 1    
   128   65   69 1    
   129   65  131 1    
   130   66   67 am   BACKBONE|DICT|INTERRES
   131   66   68 2    
   132   67  132 1    
   133   67  133 1    
   134   69   70 1    
   135   69  134 1    
   136   69  135 1    
   137   70   71 1    
   138   71  136 1    
   139   71  137 1    
@<TRIPOS>SUBSTRUCTURE
     1 UNK         1 GROUP             0       ****    0 ROOT    
