@<TRIPOS>MOLECULE
3R136
137   139    1
SMALL
USER_CHARGES


@<TRIPOS>ATOM
      1 CA         29.1453   17.5527    0.2325 C.3       0 UNK        -0.1979 
      2 C          28.2836   18.5414    1.0043 C.2       0 UNK         0.4864 
      3 O          27.5025   18.1256    1.8610 O.2       0 UNK        -0.5359 
      4 N          28.4242   19.8404    0.7012 N.am      1 UNK        -0.4318 
      5 CA         27.7065   20.9676    1.3135 C.3       1 UNK         0.0824 
      6 C6         28.1264   21.2456    2.7860 C.3       12 UNK        -0.0944 
      7 S7         29.7542   22.0615    2.8593 S.3       12 UNK        -0.2672 
      8 C8         29.2016   23.7946    2.7539 C.3       12 UNK         0.0333 
      9 C9         30.3397   24.7571    2.4506 C.ar      12 UNK        -0.0807 
     10 C10        30.6681   25.7699    3.3567 C.ar      12 UNK        -0.0894 
     11 C11        31.6829   26.6850    3.0614 C.ar      12 UNK        -0.0804 
     12 C12        32.3702   26.5833    1.8480 C.ar      12 UNK        -0.0824 
     13 C13        32.0526   25.5730    0.9351 C.ar      12 UNK        -0.0762 
     14 C14        31.0323   24.6672    1.2391 C.ar      12 UNK        -0.0782 
     15 C15        32.8273   25.4396   -0.3683 C.3       12 UNK         0.0230 
     16 S16        31.8727   26.0251   -1.8038 S.3       12 UNK        -0.2608 
     17 C17        31.8105   27.8260   -1.5120 C.3       12 UNK        -0.0989 
     18 CA         30.3601   28.3596   -1.4127 C.3       5 UNK         0.0716 
     19 N          29.5874   27.6899   -0.3573 N.am      5 UNK        -0.4135 
     20 C          28.2503   27.6824   -0.2881 C.2       4 UNK         0.5031 
     21 O          27.5149   28.2699   -1.0855 O.2       4 UNK        -0.5229 
     22 CA         27.6322   26.9145    0.8894 C.3       4 UNK         0.0329 
     23 CB         27.4005   27.8454    2.0895 C.3       4 UNK        -0.2001 
     24 N          26.3644   26.2938    0.5007 N.am      4 UNK        -0.4303 
     25 C          26.2783   25.1401   -0.1707 C.2       3 UNK         0.5044 
     26 O          27.2535   24.4397   -0.4631 O.2       3 UNK        -0.5152 
     27 CA         24.8727   24.6819   -0.5839 C.3       3 UNK         0.0319 
     28 CB         24.4160   25.3682   -1.8828 C.3       3 UNK        -0.2001 
     29 N          24.9385   23.2401   -0.7791 N.am      3 UNK        -0.4354 
     30 C          23.9601   22.3489   -0.5844 C.2       2 UNK         0.4964 
     31 O          22.7871   22.6493   -0.3614 O.2       2 UNK        -0.5047 
     32 CA         24.3801   20.8641   -0.6055 C.3       2 UNK         0.0288 
     33 CB         24.2158   20.2723   -2.0148 C.3       2 UNK        -0.2113 
     34 N          25.7654   20.6752   -0.1541 N.am      2 UNK        -0.4145 
     35 C          26.1776   20.8858    1.1063 C.2       1 UNK         0.5006 
     36 O          25.4043   21.0595    2.0510 O.2       1 UNK        -0.5103 
     37 C          30.3646   29.8979   -1.2746 C.2       5 UNK         0.5055 
     38 O          30.6362   30.5869   -2.2595 O.2       5 UNK        -0.5220 
     39 N          30.0754   30.4114   -0.0739 N.am      6 UNK        -0.4450 
     40 CA         29.9668   31.8289    0.2482 C.3       6 UNK         0.0367 
     41 CB         31.3438   32.3710    0.6740 C.3       6 UNK        -0.1929 
     42 C          28.9409   31.9814    1.3758 C.2       6 UNK         0.5070 
     43 O          28.6901   31.0186    2.1049 O.2       6 UNK        -0.5237 
     44 N          28.3751   33.1880    1.5071 N.am      7 UNK        -0.4739 
     45 CA         27.4435   33.5413    2.5848 C.3       7 UNK         0.0276 
     46 CB         26.6692   34.8111    2.1951 C.3       7 UNK        -0.1927 
     47 C          28.1494   33.7327    3.9395 C.2       7 UNK         0.5013 
     48 O          27.5439   33.4737    4.9805 O.2       7 UNK        -0.5193 
     49 N          29.4119   34.1770    3.8979 N.am      8 UNK        -0.4253 
     50 CA         30.3058   34.2678    5.0500 C.3       8 UNK         0.0242 
     51 CB         31.3252   35.3919    4.8009 C.3       8 UNK        -0.2000 
     52 C          31.0319   32.9311    5.2516 C.2       8 UNK         0.4948 
     53 O          31.2664   32.2067    4.2802 O.2       8 UNK        -0.5275 
     54 N          31.4405   32.6506    6.4951 N.am      9 UNK        -0.4246 
     55 CA         32.1774   31.4461    6.8963 C.3       9 UNK         0.0261 
     56 CB         32.0265   31.2505    8.4166 C.3       9 UNK        -0.1959 
     57 C          33.6545   31.4627    6.4459 C.2       9 UNK         0.5033 
     58 O          34.5551   31.2609    7.2630 O.2       9 UNK        -0.5390 
     59 N          33.8811   31.6806    5.1436 N.am      10 UNK        -0.4215 
     60 CA         35.1926   31.7135    4.4834 C.3       10 UNK         0.0240 
     61 CB         35.0015   32.1371    3.0177 C.3       10 UNK        -0.1982 
     62 C          35.9613   30.3811    4.5653 C.2       10 UNK         0.4970 
     63 O          37.1904   30.3809    4.4942 O.2       10 UNK        -0.4916 
     64 N          35.2182   29.2827    4.7334 N.am      11 UNK        -0.4279 
     65 CA         35.7135   27.9367    5.0376 C.3       11 UNK         0.1003 
     66 C          36.2681   27.7534    6.4830 C.2       11 UNK         0.5709 
     67 N          36.0976   28.7008    7.3995 N.am      11 UNK        -0.7358 
     68 O          36.8836   26.7305    6.7739 O.2       11 UNK        -0.4999 
     69 C69        34.6493   26.8662    4.6747 C.3       12 UNK        -0.0954 
     70 S70        33.0163   27.1559    5.4511 S.3       12 UNK        -0.2268 
     71 C71        32.0286   27.7854    4.0545 C.3       12 UNK         0.0203 
     72 H72        29.7920   18.0505   -0.4899 H         1 UNK         0.0888 
     73 H73        29.7764   16.9898    0.9198 H         1 UNK         0.0888 
     74 H74        28.5146   16.8469   -0.3072 H         1 UNK         0.0888 
     75 H75        29.0953   20.0996   -0.0088 H         1 UNK         0.3017 
     76 H76        27.9935   21.8417    0.7263 H         1 UNK         0.0873 
     77 H77        28.1589   20.3232    3.3675 H         1 UNK         0.0745 
     78 H78        27.4137   21.8930    3.3002 H         1 UNK         0.0745 
     79 H79        28.7027   24.0635    3.6863 H         1 UNK         0.0705 
     80 H80        28.4518   23.8868    1.9681 H         1 UNK         0.0705 
     81 H81        30.1340   25.8514    4.2937 H         1 UNK         0.1334 
     82 H82        33.1608   27.2850    1.6194 H         1 UNK         0.1417 
     83 H83        30.7766   23.8889    0.5322 H         1 UNK         0.1562 
     84 H84        33.0866   24.3915   -0.5250 H         1 UNK         0.0748 
     85 H85        33.7743   25.9795   -0.3170 H         1 UNK         0.0748 
     86 H86        32.3328   28.3055   -2.3425 H         1 UNK         0.0940 
     87 H87        32.3793   28.0836   -0.6175 H         1 UNK         0.0940 
     88 H88        29.8673   28.1401   -2.3627 H         1 UNK         0.0703 
     89 H89        30.1224   27.1615    0.3179 H         1 UNK         0.3081 
     90 H90        28.3264   26.1330    1.1952 H         1 UNK         0.0719 
     91 H91        26.7472   28.6813    1.8350 H         1 UNK         0.0809 
     92 H92        26.9535   27.3103    2.9274 H         1 UNK         0.0809 
     93 H93        28.3426   28.2660    2.4439 H         1 UNK         0.0809 
     94 H94        25.5270   26.8353    0.6597 H         1 UNK         0.2990 
     95 H95        24.1755   24.9101    0.2253 H         1 UNK         0.0690 
     96 H96        23.4222   25.0326   -2.1799 H         1 UNK         0.0788 
     97 H97        25.0995   25.1622   -2.7076 H         1 UNK         0.0788 
     98 H98        24.3696   26.4509   -1.7593 H         1 UNK         0.0788 
     99 H99        25.8830   22.9086   -0.9314 H         1 UNK         0.2993 
    100 H100       23.7192   20.3233    0.0758 H         1 UNK         0.0949 
    101 H101       23.1875   20.3784   -2.3635 H         1 UNK         0.0767 
    102 H102       24.8593   20.7700   -2.7415 H         1 UNK         0.0767 
    103 H103       24.4527   19.2081   -2.0281 H         1 UNK         0.0767 
    104 H104       26.4583   20.4981   -0.8673 H         1 UNK         0.3013 
    105 H105       29.7931   29.7991    0.6814 H         1 UNK         0.3121 
    106 H106       29.6057   32.3775   -0.6247 H         1 UNK         0.0774 
    107 H107       31.2915   33.4313    0.9227 H         1 UNK         0.0815 
    108 H108       31.7259   31.8487    1.5523 H         1 UNK         0.0815 
    109 H109       32.0777   32.2624   -0.1246 H         1 UNK         0.0815 
    110 H110       28.6192   33.9203    0.8548 H         1 UNK         0.2987 
    111 H111       26.7251   32.7264    2.7025 H         1 UNK         0.0949 
    112 H112       27.3336   35.6645    2.0536 H         1 UNK         0.0806 
    113 H113       26.1065   34.6656    1.2728 H         1 UNK         0.0806 
    114 H114       25.9516   35.0825    2.9707 H         1 UNK         0.0806 
    115 H115       29.8365   34.2995    2.9912 H         1 UNK         0.3010 
    116 H116       29.7283   34.5029    5.9469 H         1 UNK         0.0829 
    117 H117       30.8284   36.3500    4.6467 H         1 UNK         0.0813 
    118 H118       31.9957   35.5101    5.6533 H         1 UNK         0.0813 
    119 H119       31.9447   35.1908    3.9256 H         1 UNK         0.0813 
    120 H120       31.2535   33.3214    7.2271 H         1 UNK         0.3038 
    121 H121       31.7130   30.5856    6.4092 H         1 UNK         0.0769 
    122 H122       32.5112   30.3289    8.7425 H         1 UNK         0.0811 
    123 H123       30.9780   31.1801    8.7067 H         1 UNK         0.0811 
    124 H124       32.4770   32.0712    8.9762 H         1 UNK         0.0811 
    125 H125       33.0603   31.8453    4.5623 H         1 UNK         0.3204 
    126 H126       35.7976   32.4699    4.9876 H         1 UNK         0.0748 
    127 H127       35.9600   32.2016    2.5006 H         1 UNK         0.0771 
    128 H128       34.3813   31.4264    2.4696 H         1 UNK         0.0771 
    129 H129       34.5296   33.1174    2.9461 H         1 UNK         0.0771 
    130 H130       34.2189   29.3942    4.8002 H         1 UNK         0.2980 
    131 H131       36.5701   27.7626    4.3838 H         1 UNK         0.0545 
    132 H132       36.4731   28.5570    8.3230 H         1 UNK         0.3459 
    133 H133       35.5916   29.5554    7.1940 H         1 UNK         0.3459 
    134 H134       34.5335   26.8332    3.5921 H         1 UNK         0.0616 
    135 H135       34.9905   25.8678    4.9539 H         1 UNK         0.0616 
    136 H136       31.1071   28.2199    4.4454 H         1 UNK         0.0634 
    137 H137       32.5614   28.6001    3.5619 H         1 UNK         0.0634 
@<TRIPOS>BOND
     1    1    2 1    
     2    1   72 1    
     3    1   73 1    
     4    1   74 1    
     5    2    3 2    
     6    2    4 am   BACKBONE|DICT|INTERRES
     7    4    5 1    
     8    4   75 1    
     9    5    6 1    
    10    5   35 1    
    11    5   76 1    
    12    6    7 1    
    13    6   77 1    
    14    6   78 1    
    15    7    8 1    
    16    8    9 1    
    17    8   79 1    
    18    8   80 1    
    19    9   10 ar   
    20    9   14 ar   
    21   10   11 ar   
    22   10   81 1    
    23   11   12 ar   
    24   11   71 1    
    25   12   13 ar   
    26   12   82 1    
    27   13   14 ar   
    28   13   15 1    
    29   14   83 1    
    30   15   16 1    
    31   15   84 1    
    32   15   85 1    
    33   16   17 1    
    34   17   18 1    
    35   17   86 1    
    36   17   87 1    
    37   18   19 1    
    38   18   37 1    
    39   18   88 1    
    40   19   20 am   BACKBONE|DICT|INTERRES
    41   19   89 1    
    42   20   21 2    
    43   20   22 1    
    44   22   23 1    
    45   22   24 1    
    46   22   90 1    
    47   23   91 1    
    48   23   92 1    
    49   23   93 1    
    50   24   25 am   BACKBONE|DICT|INTERRES
    51   24   94 1    
    52   25   26 2    
    53   25   27 1    
    54   27   28 1    
    55   27   29 1    
    56   27   95 1    
    57   28   96 1    
    58   28   97 1    
    59   28   98 1    
    60   29   30 am   BACKBONE|DICT|INTERRES
    61   29   99 1    
    62   30   31 2    
    63   30   32 1    
    64   32   33 1    
    65   32   34 1    
    66   32  100 1    
    67   33  101 1    
    68   33  102 1    
    69   33  103 1    
    70   34   35 am   BACKBONE|DICT|INTERRES
    71   34  104 1    
    72   35   36 2    
    73   37   38 2    
    74   37   39 am   BACKBONE|DICT|INTERRES
    75   39   40 1    
    76   39  105 1    
    77   40   41 1    
    78   40   42 1    
    79   40  106 1    
    80   41  107 1    
    81   41  108 1    
    82   41  109 1    
    83   42   43 2    
    84   42   44 am   BACKBONE|DICT|INTERRES
    85   44   45 1    
    86   44  110 1    
    87   45   46 1    
    88   45   47 1    
    89   45  111 1    
    90   46  112 1    
    91   46  113 1    
    92   46  114 1    
    93   47   48 2    
    94   47   49 am   BACKBONE|DICT|INTERRES
    95   49   50 1    
    96   49  115 1    
    97   50   51 1    
    98   50   52 1    
    99   50  116 1    
   100   51  117 1    
   101   51  118 1    
   102   51  119 1    
   103   52   53 2    
   104   52   54 am   BACKBONE|DICT|INTERRES
   105   54   55 1    
   106   54  120 1    
   107   55   56 1    
   108   55   57 1    
   109   55  121 1    
   110   56  122 1    
   111   56  123 1    
   112   56  124 1    
   113   57   58 2    
   114   57   59 am   BACKBONE|DICT|INTERRES
   115   59   60 1    
   116   59  125 1    
   117   60   61 1    
   118   60   62 1    
   119   60  126 1    
   120   61  127 1    
   121   61  128 1    
   122   61  129 1    
   123   62   63 2    
   124   62   64 am   BACKBONE|DICT|INTERRES
   125   64   65 1    
   126   64  130 1    
   127   65   66 1    
   128   65   69 1    
   129   65  131 1    
   130   66   67 am   BACKBONE|DICT|INTERRES
   131   66   68 2    
   132   67  132 1    
   133   67  133 1    
   134   69   70 1    
   135   69  134 1    
   136   69  135 1    
   137   70   71 1    
   138   71  136 1    
   139   71  137 1    
@<TRIPOS>SUBSTRUCTURE
     1 UNK         1 GROUP             0       ****    0 ROOT    
