@<TRIPOS>MOLECULE
3R136
137   139    1
SMALL
USER_CHARGES


@<TRIPOS>ATOM
      1 CA         26.9295   19.7906    2.6142 C.3       0 UNK        -0.1979 
      2 C          27.2009   21.0621    1.8261 C.2       0 UNK         0.4864 
      3 O          26.4418   22.0258    1.9382 O.2       0 UNK        -0.5359 
      4 N          28.2885   21.0879    1.0426 N.am      1 UNK        -0.4318 
      5 CA         28.6929   22.2205    0.1975 C.3       1 UNK         0.0824 
      6 C6         29.8921   21.8647   -0.7143 C.3       12 UNK        -0.0944 
      7 S7         31.4221   21.4311    0.1900 S.3       12 UNK        -0.2672 
      8 C8         32.6819   22.3970   -0.7039 C.3       12 UNK         0.0333 
      9 C9         32.5853   23.8917   -0.4262 C.ar      12 UNK        -0.0807 
     10 C10        33.1860   24.4386    0.7119 C.ar      12 UNK        -0.0894 
     11 C11        33.1460   25.8177    0.9442 C.ar      12 UNK        -0.0804 
     12 C12        32.4738   26.6493    0.0431 C.ar      12 UNK        -0.0824 
     13 C13        31.8688   26.1136   -1.0979 C.ar      12 UNK        -0.0762 
     14 C14        31.9371   24.7374   -1.3311 C.ar      12 UNK        -0.0782 
     15 C15        31.1721   27.0166   -2.1050 C.3       12 UNK         0.0230 
     16 S16        29.3642   26.8161   -2.0564 S.3       12 UNK        -0.2608 
     17 C17        28.9548   27.7702   -0.5602 C.3       12 UNK        -0.0989 
     18 CA         27.4287   27.9853   -0.4238 C.3       5 UNK         0.0716 
     19 N          26.7331   26.7351   -0.1084 N.am      5 UNK        -0.4135 
     20 C          25.4132   26.5425   -0.2303 C.2       4 UNK         0.5031 
     21 O          24.6380   27.3744   -0.7058 O.2       4 UNK        -0.5229 
     22 CA         24.8587   25.1930    0.2584 C.3       4 UNK         0.0329 
     23 CB         25.1129   24.0906   -0.7822 C.3       4 UNK        -0.2001 
     24 N          25.4126   24.7883    1.5525 N.am      4 UNK        -0.4303 
     25 C          25.1530   25.3990    2.7189 C.2       3 UNK         0.5044 
     26 O          24.3631   26.3358    2.8412 O.2       3 UNK        -0.5152 
     27 CA         25.8817   24.8708    3.9654 C.3       3 UNK         0.0319 
     28 CB         25.0715   23.7475    4.6334 C.3       3 UNK        -0.2001 
     29 N          27.2201   24.3784    3.6359 N.am      3 UNK        -0.4354 
     30 C          28.3315   25.1292    3.6698 C.2       2 UNK         0.4964 
     31 O          28.3618   26.2865    4.0854 O.2       2 UNK        -0.5047 
     32 CA         29.6407   24.4862    3.1740 C.3       2 UNK         0.0288 
     33 CB         30.4537   23.9528    4.3649 C.3       2 UNK        -0.2113 
     34 N          29.4502   23.4000    2.2130 N.am      2 UNK        -0.4145 
     35 C          28.9130   23.5277    0.9914 C.2       1 UNK         0.5006 
     36 O          28.5201   24.5961    0.5246 O.2       1 UNK        -0.5103 
     37 C          27.1197   29.0750    0.6234 C.2       5 UNK         0.5055 
     38 O          26.8310   28.7617    1.7799 O.2       5 UNK        -0.5220 
     39 N          27.2011   30.3392    0.1877 N.am      6 UNK        -0.4450 
     40 CA         26.9863   31.5293    1.0186 C.3       6 UNK         0.0367 
     41 CB         26.0763   32.5046    0.2508 C.3       6 UNK        -0.1929 
     42 C          28.3019   32.2248    1.4188 C.2       6 UNK         0.5070 
     43 O          28.2576   33.1907    2.1823 O.2       6 UNK        -0.5237 
     44 N          29.4404   31.7552    0.8961 N.am      7 UNK        -0.4739 
     45 CA         30.7819   32.2650    1.1671 C.3       7 UNK         0.0276 
     46 CB         31.0772   33.4424    0.2176 C.3       7 UNK        -0.1927 
     47 C          31.7870   31.1147    0.9737 C.2       7 UNK         0.5013 
     48 O          31.4342   30.1273    0.3274 O.2       7 UNK        -0.5193 
     49 N          33.0213   31.1988    1.4859 N.am      8 UNK        -0.4253 
     50 CA         33.6232   32.2713    2.2803 C.3       8 UNK         0.0242 
     51 CB         34.7970   32.8660    1.4820 C.3       8 UNK        -0.2000 
     52 C          34.1223   31.7030    3.6160 C.2       8 UNK         0.4948 
     53 O          34.2242   30.4817    3.7679 O.2       8 UNK        -0.5275 
     54 N          34.4370   32.6079    4.5551 N.am      9 UNK        -0.4246 
     55 CA         34.9144   32.3321    5.9156 C.3       9 UNK         0.0261 
     56 CB         36.3541   31.7669    5.8834 C.3       9 UNK        -0.1959 
     57 C          33.9030   31.4619    6.6847 C.2       9 UNK         0.5033 
     58 O          32.7627   31.8949    6.8630 O.2       9 UNK        -0.5390 
     59 N          34.3051   30.2460    7.0792 N.am      10 UNK        -0.4215 
     60 CA         33.4556   29.2462    7.7349 C.3       10 UNK         0.0240 
     61 CB         34.3171   28.0381    8.1376 C.3       10 UNK        -0.1982 
     62 C          32.2520   28.7885    6.8875 C.2       10 UNK         0.4970 
     63 O          31.2467   28.3710    7.4635 O.2       10 UNK        -0.4916 
     64 N          32.3653   28.8870    5.5568 N.am      11 UNK        -0.4279 
     65 CA         31.2827   28.6101    4.6018 C.3       11 UNK         0.1003 
     66 C          30.3945   29.8546    4.3069 C.2       11 UNK         0.5709 
     67 N          30.6378   31.0209    4.8983 N.am      11 UNK        -0.7358 
     68 O          29.4511   29.7634    3.5303 O.2       11 UNK        -0.4999 
     69 C69        31.8189   27.9638    3.2966 C.3       12 UNK        -0.0954 
     70 S70        32.8097   26.4657    3.6169 S.3       12 UNK        -0.2268 
     71 C71        33.8702   26.4090    2.1448 C.3       12 UNK         0.0203 
     72 H72        26.9117   20.0084    3.6816 H         1 UNK         0.0888 
     73 H73        25.9607   19.3780    2.3342 H         1 UNK         0.0888 
     74 H74        27.6884   19.0294    2.4343 H         1 UNK         0.0888 
     75 H75        28.8909   20.2777    0.9986 H         1 UNK         0.3017 
     76 H76        27.8462   22.4122   -0.4637 H         1 UNK         0.0873 
     77 H77        30.0801   22.6827   -1.4088 H         1 UNK         0.0745 
     78 H78        29.6290   21.0135   -1.3443 H         1 UNK         0.0745 
     79 H79        33.6688   22.0384   -0.4076 H         1 UNK         0.0705 
     80 H80        32.5994   22.1975   -1.7736 H         1 UNK         0.0705 
     81 H81        33.7024   23.7916    1.4079 H         1 UNK         0.1334 
     82 H82        32.4374   27.7151    0.2211 H         1 UNK         0.1417 
     83 H83        31.4850   24.3301   -2.2249 H         1 UNK         0.1562 
     84 H84        31.5247   26.7711   -3.1077 H         1 UNK         0.0748 
     85 H85        31.4328   28.0635   -1.9397 H         1 UNK         0.0748 
     86 H86        29.4741   28.7262   -0.6334 H         1 UNK         0.0940 
     87 H87        29.3625   27.2650    0.3184 H         1 UNK         0.0940 
     88 H88        27.0453   28.3404   -1.3833 H         1 UNK         0.0703 
     89 H89        27.3136   25.9826    0.2555 H         1 UNK         0.3081 
     90 H90        23.7785   25.2993    0.3793 H         1 UNK         0.0719 
     91 H91        24.6172   24.3266   -1.7247 H         1 UNK         0.0809 
     92 H92        26.1752   23.9756   -0.9963 H         1 UNK         0.0809 
     93 H93        24.7302   23.1269   -0.4452 H         1 UNK         0.0809 
     94 H94        26.0108   23.9692    1.5609 H         1 UNK         0.2990 
     95 H95        25.9592   25.6943    4.6788 H         1 UNK         0.0690 
     96 H96        25.5628   23.3892    5.5380 H         1 UNK         0.0788 
     97 H97        24.9301   22.8950    3.9683 H         1 UNK         0.0788 
     98 H98        24.0809   24.1023    4.9213 H         1 UNK         0.0788 
     99 H99        27.2686   23.4435    3.2484 H         1 UNK         0.2993 
    100 H100       30.2175   25.2670    2.6739 H         1 UNK         0.0949 
    101 H101       29.9348   23.1435    4.8801 H         1 UNK         0.0767 
    102 H102       31.4273   23.5813    4.0440 H         1 UNK         0.0767 
    103 H103       30.6361   24.7418    5.0962 H         1 UNK         0.0767 
    104 H104       29.7442   22.4788    2.5028 H         1 UNK         0.3013 
    105 H105       27.4352   30.5088   -0.7808 H         1 UNK         0.3121 
    106 H106       26.4792   31.2543    1.9459 H         1 UNK         0.0774 
    107 H107       26.5399   32.8475   -0.6749 H         1 UNK         0.0815 
    108 H108       25.1225   32.0410   -0.0017 H         1 UNK         0.0815 
    109 H109       25.8548   33.3885    0.8507 H         1 UNK         0.0815 
    110 H110       29.4289   30.9023    0.3524 H         1 UNK         0.2987 
    111 H111       30.8139   32.5923    2.2074 H         1 UNK         0.0949 
    112 H112       30.3579   34.2504    0.3521 H         1 UNK         0.0806 
    113 H113       32.0663   33.8636    0.3939 H         1 UNK         0.0806 
    114 H114       31.0382   33.1320   -0.8273 H         1 UNK         0.0806 
    115 H115       33.6130   30.3847    1.4024 H         1 UNK         0.3010 
    116 H116       32.9129   33.0661    2.5039 H         1 UNK         0.0829 
    117 H117       35.5748   32.1240    1.2961 H         1 UNK         0.0813 
    118 H118       35.2608   33.6964    2.0158 H         1 UNK         0.0813 
    119 H119       34.4685   33.2494    0.5160 H         1 UNK         0.0813 
    120 H120       34.2930   33.5853    4.3419 H         1 UNK         0.3038 
    121 H121       34.9475   33.2901    6.4370 H         1 UNK         0.0769 
    122 H122       36.7441   31.6178    6.8913 H         1 UNK         0.0811 
    123 H123       37.0304   32.4610    5.3843 H         1 UNK         0.0811 
    124 H124       36.4182   30.8157    5.3535 H         1 UNK         0.0811 
    125 H125       35.2508   29.9664    6.8622 H         1 UNK         0.3204 
    126 H126       33.0564   29.7012    8.6438 H         1 UNK         0.0748 
    127 H127       34.7621   27.5523    7.2679 H         1 UNK         0.0771 
    128 H128       35.1234   28.3302    8.8109 H         1 UNK         0.0771 
    129 H129       33.7190   27.2886    8.6581 H         1 UNK         0.0771 
    130 H130       33.2098   29.2749    5.1511 H         1 UNK         0.2980 
    131 H131       30.6079   27.8797    5.0521 H         1 UNK         0.0545 
    132 H132       31.3891   31.1296    5.5698 H         1 UNK         0.3459 
    133 H133       30.0277   31.7976    4.7020 H         1 UNK         0.3459 
    134 H134       32.4291   28.6809    2.7482 H         1 UNK         0.0616 
    135 H135       30.9952   27.6894    2.6349 H         1 UNK         0.0616 
    136 H136       34.7483   25.8045    2.3763 H         1 UNK         0.0634 
    137 H137       34.2458   27.4077    1.9165 H         1 UNK         0.0634 
@<TRIPOS>BOND
     1    1    2 1    
     2    1   72 1    
     3    1   73 1    
     4    1   74 1    
     5    2    3 2    
     6    2    4 am   BACKBONE|DICT|INTERRES
     7    4    5 1    
     8    4   75 1    
     9    5    6 1    
    10    5   35 1    
    11    5   76 1    
    12    6    7 1    
    13    6   77 1    
    14    6   78 1    
    15    7    8 1    
    16    8    9 1    
    17    8   79 1    
    18    8   80 1    
    19    9   10 ar   
    20    9   14 ar   
    21   10   11 ar   
    22   10   81 1    
    23   11   12 ar   
    24   11   71 1    
    25   12   13 ar   
    26   12   82 1    
    27   13   14 ar   
    28   13   15 1    
    29   14   83 1    
    30   15   16 1    
    31   15   84 1    
    32   15   85 1    
    33   16   17 1    
    34   17   18 1    
    35   17   86 1    
    36   17   87 1    
    37   18   19 1    
    38   18   37 1    
    39   18   88 1    
    40   19   20 am   BACKBONE|DICT|INTERRES
    41   19   89 1    
    42   20   21 2    
    43   20   22 1    
    44   22   23 1    
    45   22   24 1    
    46   22   90 1    
    47   23   91 1    
    48   23   92 1    
    49   23   93 1    
    50   24   25 am   BACKBONE|DICT|INTERRES
    51   24   94 1    
    52   25   26 2    
    53   25   27 1    
    54   27   28 1    
    55   27   29 1    
    56   27   95 1    
    57   28   96 1    
    58   28   97 1    
    59   28   98 1    
    60   29   30 am   BACKBONE|DICT|INTERRES
    61   29   99 1    
    62   30   31 2    
    63   30   32 1    
    64   32   33 1    
    65   32   34 1    
    66   32  100 1    
    67   33  101 1    
    68   33  102 1    
    69   33  103 1    
    70   34   35 am   BACKBONE|DICT|INTERRES
    71   34  104 1    
    72   35   36 2    
    73   37   38 2    
    74   37   39 am   BACKBONE|DICT|INTERRES
    75   39   40 1    
    76   39  105 1    
    77   40   41 1    
    78   40   42 1    
    79   40  106 1    
    80   41  107 1    
    81   41  108 1    
    82   41  109 1    
    83   42   43 2    
    84   42   44 am   BACKBONE|DICT|INTERRES
    85   44   45 1    
    86   44  110 1    
    87   45   46 1    
    88   45   47 1    
    89   45  111 1    
    90   46  112 1    
    91   46  113 1    
    92   46  114 1    
    93   47   48 2    
    94   47   49 am   BACKBONE|DICT|INTERRES
    95   49   50 1    
    96   49  115 1    
    97   50   51 1    
    98   50   52 1    
    99   50  116 1    
   100   51  117 1    
   101   51  118 1    
   102   51  119 1    
   103   52   53 2    
   104   52   54 am   BACKBONE|DICT|INTERRES
   105   54   55 1    
   106   54  120 1    
   107   55   56 1    
   108   55   57 1    
   109   55  121 1    
   110   56  122 1    
   111   56  123 1    
   112   56  124 1    
   113   57   58 2    
   114   57   59 am   BACKBONE|DICT|INTERRES
   115   59   60 1    
   116   59  125 1    
   117   60   61 1    
   118   60   62 1    
   119   60  126 1    
   120   61  127 1    
   121   61  128 1    
   122   61  129 1    
   123   62   63 2    
   124   62   64 am   BACKBONE|DICT|INTERRES
   125   64   65 1    
   126   64  130 1    
   127   65   66 1    
   128   65   69 1    
   129   65  131 1    
   130   66   67 am   BACKBONE|DICT|INTERRES
   131   66   68 2    
   132   67  132 1    
   133   67  133 1    
   134   69   70 1    
   135   69  134 1    
   136   69  135 1    
   137   70   71 1    
   138   71  136 1    
   139   71  137 1    
@<TRIPOS>SUBSTRUCTURE
     1 UNK         1 GROUP             0       ****    0 ROOT    
