@<TRIPOS>MOLECULE
3R136
137   139    1
SMALL
USER_CHARGES


@<TRIPOS>ATOM
      1 CA         33.2179   22.9625   -4.0577 C.3       0 UNK        -0.1979 
      2 C          32.7004   23.9610   -3.0326 C.2       0 UNK         0.4864 
      3 O          33.4470   24.8440   -2.6079 O.2       0 UNK        -0.5359 
      4 N          31.4306   23.8303   -2.6386 N.am      1 UNK        -0.4318 
      5 CA         30.7490   24.6865   -1.6703 C.3       1 UNK         0.0824 
      6 C6         31.1309   24.3763   -0.1997 C.3       12 UNK        -0.0944 
      7 S7         31.0192   22.6207    0.3019 S.3       12 UNK        -0.2672 
      8 C8         29.5045   22.6050    1.3225 C.3       12 UNK         0.0333 
      9 C9         29.6224   23.1887    2.7349 C.ar      12 UNK        -0.0807 
     10 C10        30.6720   24.0281    3.1380 C.ar      12 UNK        -0.0894 
     11 C11        30.6916   24.5865    4.4191 C.ar      12 UNK        -0.0804 
     12 C12        29.6678   24.2815    5.3183 C.ar      12 UNK        -0.0824 
     13 C13        28.6133   23.4490    4.9351 C.ar      12 UNK        -0.0762 
     14 C14        28.6022   22.9015    3.6488 C.ar      12 UNK        -0.0782 
     15 C15        27.4624   23.1814    5.8959 C.3       12 UNK         0.0230 
     16 S16        25.9307   24.0350    5.3892 S.3       12 UNK        -0.2608 
     17 C17        26.4788   25.7740    5.2748 C.3       12 UNK        -0.0989 
     18 CA         26.7468   26.1899    3.8007 C.3       5 UNK         0.0716 
     19 N          25.5671   26.1621    2.9332 N.am      5 UNK        -0.4135 
     20 C          24.4214   26.8451    3.0833 C.2       4 UNK         0.5031 
     21 O          24.1872   27.5944    4.0322 O.2       4 UNK        -0.5229 
     22 CA         23.3430   26.6937    1.9871 C.3       4 UNK         0.0329 
     23 CB         23.0730   28.0467    1.3054 C.3       4 UNK        -0.2001 
     24 N          23.6819   25.7141    0.9529 N.am      4 UNK        -0.4303 
     25 C          23.6786   24.3819    1.1014 C.2       3 UNK         0.5044 
     26 O          23.2505   23.8056    2.1010 O.2       3 UNK        -0.5152 
     27 CA         24.2962   23.5545   -0.0445 C.3       3 UNK         0.0319 
     28 CB         23.1924   22.8995   -0.8905 C.3       3 UNK        -0.2001 
     29 N          25.1902   24.3187   -0.9274 N.am      3 UNK        -0.4354 
     30 C          26.3326   24.9103   -0.5499 C.2       2 UNK         0.4964 
     31 O          26.7652   24.8993    0.6051 O.2       2 UNK        -0.5047 
     32 CA         27.0544   25.7391   -1.6188 C.3       2 UNK         0.0288 
     33 CB         26.6446   27.2167   -1.5011 C.3       2 UNK        -0.2113 
     34 N          28.5038   25.6338   -1.4676 N.am      2 UNK        -0.4145 
     35 C          29.2358   24.6121   -1.9267 C.2       1 UNK         0.5006 
     36 O          28.7650   23.6529   -2.5476 O.2       1 UNK        -0.5103 
     37 C          27.4786   27.5341    3.6557 C.2       5 UNK         0.5055 
     38 O          27.5406   28.3209    4.6027 O.2       5 UNK        -0.5220 
     39 N          28.0108   27.7641    2.4502 N.am      6 UNK        -0.4450 
     40 CA         28.8828   28.8819    2.1116 C.3       6 UNK         0.0367 
     41 CB         28.0626   30.0214    1.4861 C.3       6 UNK        -0.1929 
     42 C          29.9484   28.3637    1.1414 C.2       6 UNK         0.5070 
     43 O          29.6334   27.5199    0.2969 O.2       6 UNK        -0.5237 
     44 N          31.1791   28.8672    1.2742 N.am      7 UNK        -0.4739 
     45 CA         32.3326   28.4324    0.4846 C.3       7 UNK         0.0276 
     46 CB         32.9769   27.2006    1.1478 C.3       7 UNK        -0.1927 
     47 C          33.3912   29.5284    0.2870 C.2       7 UNK         0.5013 
     48 O          34.0927   29.4855   -0.7248 O.2       7 UNK        -0.5193 
     49 N          33.5334   30.4615    1.2393 N.am      8 UNK        -0.4253 
     50 CA         34.6098   31.4555    1.2672 C.3       8 UNK         0.0242 
     51 CB         35.9291   30.7868    1.7236 C.3       8 UNK        -0.2000 
     52 C          34.2015   32.6497    2.1460 C.2       8 UNK         0.4948 
     53 O          33.0093   32.9238    2.2890 O.2       8 UNK        -0.5275 
     54 N          35.1912   33.3521    2.7144 N.am      9 UNK        -0.4246 
     55 CA         34.9825   34.4370    3.6771 C.3       9 UNK         0.0261 
     56 CB         36.2343   35.3288    3.7284 C.3       9 UNK        -0.1959 
     57 C          34.6324   33.9136    5.0816 C.2       9 UNK         0.5033 
     58 O          33.8143   34.5300    5.7653 O.2       9 UNK        -0.5390 
     59 N          35.2624   32.8008    5.4895 N.am      10 UNK        -0.4215 
     60 CA         35.0442   32.1488    6.7834 C.3       10 UNK         0.0240 
     61 CB         36.2439   31.2471    7.1254 C.3       10 UNK        -0.1982 
     62 C          33.7243   31.3633    6.8033 C.2       10 UNK         0.4970 
     63 O          32.8578   31.6503    7.6299 O.2       10 UNK        -0.4916 
     64 N          33.5952   30.4010    5.8814 N.am      11 UNK        -0.4279 
     65 CA         32.3561   29.6641    5.6191 C.3       11 UNK         0.1003 
     66 C          31.4672   30.5128    4.6738 C.2       11 UNK         0.5709 
     67 N          30.4628   31.2013    5.1963 N.am      11 UNK        -0.7358 
     68 O          31.6807   30.5277    3.4638 O.2       11 UNK        -0.4999 
     69 C69        32.6667   28.2469    5.0625 C.3       12 UNK        -0.0954 
     70 S70        31.1665   27.2636    4.7302 S.3       12 UNK        -0.2268 
     71 C71        31.7898   25.5602    4.8194 C.3       12 UNK         0.0203 
     72 H72        32.4541   22.2393   -4.3433 H         1 UNK         0.0888 
     73 H73        34.0675   22.4146   -3.6511 H         1 UNK         0.0888 
     74 H74        33.5457   23.4830   -4.9570 H         1 UNK         0.0888 
     75 H75        30.8321   23.1146   -3.0331 H         1 UNK         0.3017 
     76 H76        31.0401   25.7186   -1.8806 H         1 UNK         0.0873 
     77 H77        30.5412   24.9946    0.4783 H         1 UNK         0.0745 
     78 H78        32.1676   24.6739   -0.0431 H         1 UNK         0.0745 
     79 H79        28.7138   23.1297    0.7868 H         1 UNK         0.0705 
     80 H80        29.1801   21.5662    1.4003 H         1 UNK         0.0705 
     81 H81        31.4733   24.2744    2.4590 H         1 UNK         0.1334 
     82 H82        29.6760   24.7254    6.3046 H         1 UNK         0.1417 
     83 H83        27.7735   22.2738    3.3490 H         1 UNK         0.1562 
     84 H84        27.7231   23.4898    6.9096 H         1 UNK         0.0748 
     85 H85        27.2718   22.1083    5.9429 H         1 UNK         0.0748 
     86 H86        27.3761   25.9048    5.8815 H         1 UNK         0.0940 
     87 H87        25.7241   26.4128    5.7347 H         1 UNK         0.0940 
     88 H88        27.4285   25.4516    3.3780 H         1 UNK         0.0703 
     89 H89        25.6855   25.6007    2.0964 H         1 UNK         0.3081 
     90 H90        22.4252   26.3674    2.4806 H         1 UNK         0.0719 
     91 H91        22.7617   28.7974    2.0332 H         1 UNK         0.0809 
     92 H92        23.9622   28.4303    0.8032 H         1 UNK         0.0809 
     93 H93        22.2755   27.9679    0.5663 H         1 UNK         0.0809 
     94 H94        24.0345   26.0849    0.0833 H         1 UNK         0.2990 
     95 H95        24.8898   22.7626    0.4173 H         1 UNK         0.0690 
     96 H96        23.6120   22.2360   -1.6470 H         1 UNK         0.0788 
     97 H97        22.5770   23.6436   -1.3980 H         1 UNK         0.0788 
     98 H98        22.5284   22.2975   -0.2683 H         1 UNK         0.0788 
     99 H99        24.9003   24.3980   -1.8921 H         1 UNK         0.2993 
    100 H100       26.7744   25.3754   -2.6102 H         1 UNK         0.0949 
    101 H101       26.8685   27.6194   -0.5126 H         1 UNK         0.0767 
    102 H102       27.1644   27.8317   -2.2361 H         1 UNK         0.0767 
    103 H103       25.5749   27.3440   -1.6717 H         1 UNK         0.0767 
    104 H104       28.9521   26.3510   -0.8970 H         1 UNK         0.3013 
    105 H105       27.9564   27.0479    1.7353 H         1 UNK         0.3121 
    106 H106       29.3747   29.2441    3.0151 H         1 UNK         0.0774 
    107 H107       27.5714   29.7084    0.5644 H         1 UNK         0.0815 
    108 H108       27.2940   30.3774    2.1721 H         1 UNK         0.0815 
    109 H109       28.7021   30.8713    1.2445 H         1 UNK         0.0815 
    110 H110       31.3480   29.5506    2.0102 H         1 UNK         0.2987 
    111 H111       31.9848   28.1476   -0.5113 H         1 UNK         0.0949 
    112 H112       32.2316   26.4695    1.4556 H         1 UNK         0.0806 
    113 H113       33.6637   26.7063    0.4596 H         1 UNK         0.0806 
    114 H114       33.5487   27.4716    2.0345 H         1 UNK         0.0806 
    115 H115       32.8810   30.5163    2.0183 H         1 UNK         0.3010 
    116 H116       34.7461   31.8499    0.2581 H         1 UNK         0.0829 
    117 H117       36.7771   31.4678    1.6464 H         1 UNK         0.0813 
    118 H118       36.1749   29.9247    1.1034 H         1 UNK         0.0813 
    119 H119       35.8688   30.4398    2.7557 H         1 UNK         0.0813 
    120 H120       36.1465   33.0948    2.5119 H         1 UNK         0.3038 
    121 H121       34.1468   35.0516    3.3344 H         1 UNK         0.0769 
    122 H122       36.4511   35.7637    2.7525 H         1 UNK         0.0811 
    123 H123       37.1165   34.7762    4.0537 H         1 UNK         0.0811 
    124 H124       36.0936   36.1564    4.4253 H         1 UNK         0.0811 
    125 H125       35.9312   32.3734    4.8670 H         1 UNK         0.3204 
    126 H126       34.9810   32.9215    7.5531 H         1 UNK         0.0748 
    127 H127       36.0912   30.7421    8.0804 H         1 UNK         0.0771 
    128 H128       36.4113   30.4765    6.3722 H         1 UNK         0.0771 
    129 H129       37.1610   31.8300    7.2142 H         1 UNK         0.0771 
    130 H130       34.3471   30.2485    5.2278 H         1 UNK         0.2980 
    131 H131       31.8217   29.5268    6.5616 H         1 UNK         0.0545 
    132 H132       30.2971   31.2011    6.1906 H         1 UNK         0.3459 
    133 H133       29.8805   31.7546    4.5890 H         1 UNK         0.3459 
    134 H134       33.2852   27.7020    5.7773 H         1 UNK         0.0616 
    135 H135       33.2485   28.3145    4.1433 H         1 UNK         0.0616 
    136 H136       32.1306   25.3463    5.8334 H         1 UNK         0.0634 
    137 H137       32.6565   25.4565    4.1646 H         1 UNK         0.0634 
@<TRIPOS>BOND
     1    1    2 1    
     2    1   72 1    
     3    1   73 1    
     4    1   74 1    
     5    2    3 2    
     6    2    4 am   BACKBONE|DICT|INTERRES
     7    4    5 1    
     8    4   75 1    
     9    5    6 1    
    10    5   35 1    
    11    5   76 1    
    12    6    7 1    
    13    6   77 1    
    14    6   78 1    
    15    7    8 1    
    16    8    9 1    
    17    8   79 1    
    18    8   80 1    
    19    9   10 ar   
    20    9   14 ar   
    21   10   11 ar   
    22   10   81 1    
    23   11   12 ar   
    24   11   71 1    
    25   12   13 ar   
    26   12   82 1    
    27   13   14 ar   
    28   13   15 1    
    29   14   83 1    
    30   15   16 1    
    31   15   84 1    
    32   15   85 1    
    33   16   17 1    
    34   17   18 1    
    35   17   86 1    
    36   17   87 1    
    37   18   19 1    
    38   18   37 1    
    39   18   88 1    
    40   19   20 am   BACKBONE|DICT|INTERRES
    41   19   89 1    
    42   20   21 2    
    43   20   22 1    
    44   22   23 1    
    45   22   24 1    
    46   22   90 1    
    47   23   91 1    
    48   23   92 1    
    49   23   93 1    
    50   24   25 am   BACKBONE|DICT|INTERRES
    51   24   94 1    
    52   25   26 2    
    53   25   27 1    
    54   27   28 1    
    55   27   29 1    
    56   27   95 1    
    57   28   96 1    
    58   28   97 1    
    59   28   98 1    
    60   29   30 am   BACKBONE|DICT|INTERRES
    61   29   99 1    
    62   30   31 2    
    63   30   32 1    
    64   32   33 1    
    65   32   34 1    
    66   32  100 1    
    67   33  101 1    
    68   33  102 1    
    69   33  103 1    
    70   34   35 am   BACKBONE|DICT|INTERRES
    71   34  104 1    
    72   35   36 2    
    73   37   38 2    
    74   37   39 am   BACKBONE|DICT|INTERRES
    75   39   40 1    
    76   39  105 1    
    77   40   41 1    
    78   40   42 1    
    79   40  106 1    
    80   41  107 1    
    81   41  108 1    
    82   41  109 1    
    83   42   43 2    
    84   42   44 am   BACKBONE|DICT|INTERRES
    85   44   45 1    
    86   44  110 1    
    87   45   46 1    
    88   45   47 1    
    89   45  111 1    
    90   46  112 1    
    91   46  113 1    
    92   46  114 1    
    93   47   48 2    
    94   47   49 am   BACKBONE|DICT|INTERRES
    95   49   50 1    
    96   49  115 1    
    97   50   51 1    
    98   50   52 1    
    99   50  116 1    
   100   51  117 1    
   101   51  118 1    
   102   51  119 1    
   103   52   53 2    
   104   52   54 am   BACKBONE|DICT|INTERRES
   105   54   55 1    
   106   54  120 1    
   107   55   56 1    
   108   55   57 1    
   109   55  121 1    
   110   56  122 1    
   111   56  123 1    
   112   56  124 1    
   113   57   58 2    
   114   57   59 am   BACKBONE|DICT|INTERRES
   115   59   60 1    
   116   59  125 1    
   117   60   61 1    
   118   60   62 1    
   119   60  126 1    
   120   61  127 1    
   121   61  128 1    
   122   61  129 1    
   123   62   63 2    
   124   62   64 am   BACKBONE|DICT|INTERRES
   125   64   65 1    
   126   64  130 1    
   127   65   66 1    
   128   65   69 1    
   129   65  131 1    
   130   66   67 am   BACKBONE|DICT|INTERRES
   131   66   68 2    
   132   67  132 1    
   133   67  133 1    
   134   69   70 1    
   135   69  134 1    
   136   69  135 1    
   137   70   71 1    
   138   71  136 1    
   139   71  137 1    
@<TRIPOS>SUBSTRUCTURE
     1 UNK         1 GROUP             0       ****    0 ROOT    
