@<TRIPOS>MOLECULE
3R136
137   139    1
SMALL
USER_CHARGES


@<TRIPOS>ATOM
      1 CA         30.8538   22.6030    6.1984 C.3       0 UNK        -0.1979 
      2 C          29.4932   22.2433    5.6174 C.2       0 UNK         0.4864 
      3 O          28.6101   21.8030    6.3557 O.2       0 UNK        -0.5359 
      4 N          29.3247   22.4138    4.3005 N.am      1 UNK        -0.4318 
      5 CA         28.0764   22.1591    3.5773 C.3       1 UNK         0.0824 
      6 C6         28.3487   21.7899    2.0925 C.3       12 UNK        -0.0944 
      7 S7         29.1041   23.1290    1.1041 S.3       12 UNK        -0.2672 
      8 C8         30.8189   22.5592    0.9381 C.3       12 UNK         0.0333 
      9 C9         31.7044   23.6748    0.4060 C.ar      12 UNK        -0.0807 
     10 C10        32.3535   24.5367    1.2944 C.ar      12 UNK        -0.0894 
     11 C11        33.1985   25.5455    0.8195 C.ar      12 UNK        -0.0804 
     12 C12        33.3860   25.6900   -0.5580 C.ar      12 UNK        -0.0824 
     13 C13        32.7197   24.8519   -1.4587 C.ar      12 UNK        -0.0762 
     14 C14        31.8821   23.8437   -0.9704 C.ar      12 UNK        -0.0782 
     15 C15        32.9191   25.0170   -2.9592 C.3       12 UNK         0.0230 
     16 S16        31.6275   26.0589   -3.7138 S.3       12 UNK        -0.2608 
     17 C17        32.1019   27.7267   -3.1376 C.3       12 UNK        -0.0989 
     18 CA         31.0043   28.4331   -2.3007 C.3       5 UNK         0.0716 
     19 N          30.4513   27.5743   -1.2412 N.am      5 UNK        -0.4135 
     20 C          29.4008   27.8771   -0.4652 C.2       4 UNK         0.5031 
     21 O          28.8414   28.9760   -0.4612 O.2       4 UNK        -0.5229 
     22 CA         28.9412   26.7869    0.5151 C.3       4 UNK         0.0329 
     23 CB         29.7052   26.9162    1.8416 C.3       4 UNK        -0.2001 
     24 N          27.5064   26.8450    0.8028 N.am      4 UNK        -0.4303 
     25 C          26.5181   26.6949   -0.0903 C.2       3 UNK         0.5044 
     26 O          26.6976   26.4391   -1.2831 O.2       3 UNK        -0.5152 
     27 CA         25.0871   26.8452    0.4702 C.3       3 UNK         0.0319 
     28 CB         23.9890   26.5543   -0.5761 C.3       3 UNK        -0.2001 
     29 N          24.8751   26.0534    1.6918 N.am      3 UNK        -0.4354 
     30 C          24.9911   24.7222    1.8105 C.2       2 UNK         0.4964 
     31 O          25.2136   23.9550    0.8707 O.2       2 UNK        -0.5047 
     32 CA         24.8148   24.1388    3.2226 C.3       2 UNK         0.0288 
     33 CB         23.4081   23.5424    3.3960 C.3       2 UNK        -0.2113 
     34 N          25.8164   23.0959    3.4446 N.am      2 UNK        -0.4145 
     35 C          27.1045   23.3523    3.7091 C.2       1 UNK         0.5006 
     36 O          27.5307   24.4761    3.9944 O.2       1 UNK        -0.5103 
     37 C          31.5281   29.7952   -1.7920 C.2       5 UNK         0.5055 
     38 O          31.5665   30.7533   -2.5652 O.2       5 UNK        -0.5220 
     39 N          31.9118   29.8608   -0.5082 N.am      6 UNK        -0.4450 
     40 CA         32.3241   31.0823    0.1877 C.3       6 UNK         0.0367 
     41 CB         33.0483   30.6947    1.4872 C.3       6 UNK        -0.1929 
     42 C          31.1642   32.0612    0.4683 C.2       6 UNK         0.5070 
     43 O          31.4327   33.2298    0.7497 O.2       6 UNK        -0.5237 
     44 N          29.9112   31.5851    0.3819 N.am      7 UNK        -0.4739 
     45 CA         28.6278   32.2987    0.4685 C.3       7 UNK         0.0276 
     46 CB         28.4916   33.3315   -0.6670 C.3       7 UNK        -0.1927 
     47 C          28.2957   32.9344    1.8306 C.2       7 UNK         0.5013 
     48 O          27.1657   32.7853    2.2975 O.2       7 UNK        -0.5193 
     49 N          29.2580   33.6404    2.4354 N.am      8 UNK        -0.4253 
     50 CA         29.1099   34.3541    3.7073 C.3       8 UNK         0.0242 
     51 CB         30.3061   35.3015    3.8966 C.3       8 UNK        -0.2000 
     52 C          28.9658   33.4203    4.9215 C.2       8 UNK         0.4948 
     53 O          28.2780   33.7764    5.8796 O.2       8 UNK        -0.5275 
     54 N          29.6117   32.2523    4.8579 N.am      9 UNK        -0.4246 
     55 CA         29.6189   31.1962    5.8641 C.3       9 UNK         0.0261 
     56 CB         30.4561   31.6239    7.0877 C.3       9 UNK        -0.1959 
     57 C          30.2116   29.9421    5.2123 C.2       9 UNK         0.5033 
     58 O          30.8157   30.0415    4.1400 O.2       9 UNK        -0.5390 
     59 N          30.0547   28.7905    5.8740 N.am      10 UNK        -0.4215 
     60 CA         30.7298   27.5485    5.4984 C.3       10 UNK         0.0240 
     61 CB         29.9619   26.3493    6.0747 C.3       10 UNK        -0.1982 
     62 C          32.1849   27.5648    5.9940 C.2       10 UNK         0.4970 
     63 O          32.4503   28.0600    7.0917 O.2       10 UNK        -0.4916 
     64 N          33.0897   27.0085    5.1827 N.am      11 UNK        -0.4279 
     65 CA         34.5342   26.9257    5.4562 C.3       11 UNK         0.1003 
     66 C          34.9579   25.7705    6.4126 C.2       11 UNK         0.5709 
     67 N          34.0538   24.9009    6.8506 N.am      11 UNK        -0.7358 
     68 O          36.1273   25.6732    6.7791 O.2       11 UNK        -0.4999 
     69 C69        35.3599   26.9523    4.1403 C.3       12 UNK        -0.0954 
     70 S70        34.9449   25.6064    2.9777 S.3       12 UNK        -0.2268 
     71 C71        33.8873   26.4937    1.7918 C.3       12 UNK         0.0203 
     72 H72        30.7369   23.3109    7.0193 H         1 UNK         0.0888 
     73 H73        31.3411   21.7090    6.5892 H         1 UNK         0.0888 
     74 H74        31.5125   23.0481    5.4516 H         1 UNK         0.0888 
     75 H75        30.0582   22.8334    3.7496 H         1 UNK         0.3017 
     76 H76        27.5895   21.2975    4.0405 H         1 UNK         0.0873 
     77 H77        27.4168   21.5041    1.6010 H         1 UNK         0.0745 
     78 H78        28.9815   20.9023    2.0431 H         1 UNK         0.0745 
     79 H79        31.1918   22.2165    1.9044 H         1 UNK         0.0705 
     80 H80        30.8509   21.6961    0.2709 H         1 UNK         0.0705 
     81 H81        32.2074   24.4181    2.3591 H         1 UNK         0.1334 
     82 H82        34.0501   26.4587   -0.9280 H         1 UNK         0.1417 
     83 H83        31.3715   23.1867   -1.6620 H         1 UNK         0.1562 
     84 H84        32.9003   24.0372   -3.4393 H         1 UNK         0.0748 
     85 H85        33.9035   25.4359   -3.1743 H         1 UNK         0.0748 
     86 H86        32.3293   28.3231   -4.0237 H         1 UNK         0.0940 
     87 H87        33.0380   27.6717   -2.5817 H         1 UNK         0.0940 
     88 H88        30.1724   28.6557   -2.9726 H         1 UNK         0.0703 
     89 H89        30.8534   26.6486   -1.1804 H         1 UNK         0.3081 
     90 H90        29.1557   25.8153    0.0680 H         1 UNK         0.0719 
     91 H91        29.4686   27.8519    2.3507 H         1 UNK         0.0809 
     92 H92        29.4675   26.0931    2.5167 H         1 UNK         0.0809 
     93 H93        30.7815   26.9011    1.6794 H         1 UNK         0.0809 
     94 H94        27.2537   27.0449    1.7587 H         1 UNK         0.2990 
     95 H95        24.9867   27.8920    0.7615 H         1 UNK         0.0690 
     96 H96        24.0802   27.2242   -1.4321 H         1 UNK         0.0788 
     97 H97        22.9933   26.6988   -0.1571 H         1 UNK         0.0788 
     98 H98        24.0482   25.5342   -0.9567 H         1 UNK         0.0788 
     99 H99        24.6767   26.5892    2.5259 H         1 UNK         0.2993 
    100 H100       24.9527   24.9293    3.9641 H         1 UNK         0.0949 
    101 H101       22.6416   24.3057    3.2553 H         1 UNK         0.0767 
    102 H102       23.2130   22.7480    2.6741 H         1 UNK         0.0767 
    103 H103       23.2734   23.1286    4.3957 H         1 UNK         0.0767 
    104 H104       25.5507   22.1596    3.1757 H         1 UNK         0.3013 
    105 H105       31.8473   29.0224    0.0490 H         1 UNK         0.3121 
    106 H106       33.0357   31.6122   -0.4494 H         1 UNK         0.0774 
    107 H107       33.3336   31.5790    2.0591 H         1 UNK         0.0815 
    108 H108       32.4201   30.0791    2.1300 H         1 UNK         0.0815 
    109 H109       33.9615   30.1365    1.2804 H         1 UNK         0.0815 
    110 H110       29.8036   30.6000    0.1568 H         1 UNK         0.2987 
    111 H111       27.8677   31.5337    0.2988 H         1 UNK         0.0949 
    112 H112       29.2231   34.1355   -0.5786 H         1 UNK         0.0806 
    113 H113       28.6239   32.8645   -1.6430 H         1 UNK         0.0806 
    114 H114       27.5023   33.7913   -0.6590 H         1 UNK         0.0806 
    115 H115       30.1573   33.6955    1.9597 H         1 UNK         0.3010 
    116 H116       28.2015   34.9580    3.6490 H         1 UNK         0.0829 
    117 H117       30.3679   36.0291    3.0868 H         1 UNK         0.0813 
    118 H118       30.2174   35.8618    4.8285 H         1 UNK         0.0813 
    119 H119       31.2509   34.7568    3.9311 H         1 UNK         0.0813 
    120 H120       30.1300   32.0102    4.0208 H         1 UNK         0.3038 
    121 H121       28.5908   30.9841    6.1656 H         1 UNK         0.0769 
    122 H122       31.4845   31.8565    6.8071 H         1 UNK         0.0811 
    123 H123       30.4950   30.8332    7.8382 H         1 UNK         0.0811 
    124 H124       30.0362   32.5038    7.5749 H         1 UNK         0.0811 
    125 H125       29.5865   28.7985    6.7690 H         1 UNK         0.3204 
    126 H126       30.7290   27.4625    4.4109 H         1 UNK         0.0748 
    127 H127       30.4019   25.4125    5.7351 H         1 UNK         0.0771 
    128 H128       29.9704   26.3438    7.1655 H         1 UNK         0.0771 
    129 H129       28.9222   26.3483    5.7451 H         1 UNK         0.0771 
    130 H130       32.7896   26.5862    4.3182 H         1 UNK         0.2980 
    131 H131       34.8070   27.8345    5.9961 H         1 UNK         0.0545 
    132 H132       34.3431   24.1644    7.4747 H         1 UNK         0.3459 
    133 H133       33.0900   24.9837    6.5755 H         1 UNK         0.3459 
    134 H134       35.2157   27.9114    3.6401 H         1 UNK         0.0616 
    135 H135       36.4289   26.9003    4.3555 H         1 UNK         0.0616 
    136 H136       33.1288   27.0635    2.3271 H         1 UNK         0.0634 
    137 H137       34.4990   27.2219    1.2579 H         1 UNK         0.0634 
@<TRIPOS>BOND
     1    1    2 1    
     2    1   72 1    
     3    1   73 1    
     4    1   74 1    
     5    2    3 2    
     6    2    4 am   BACKBONE|DICT|INTERRES
     7    4    5 1    
     8    4   75 1    
     9    5    6 1    
    10    5   35 1    
    11    5   76 1    
    12    6    7 1    
    13    6   77 1    
    14    6   78 1    
    15    7    8 1    
    16    8    9 1    
    17    8   79 1    
    18    8   80 1    
    19    9   10 ar   
    20    9   14 ar   
    21   10   11 ar   
    22   10   81 1    
    23   11   12 ar   
    24   11   71 1    
    25   12   13 ar   
    26   12   82 1    
    27   13   14 ar   
    28   13   15 1    
    29   14   83 1    
    30   15   16 1    
    31   15   84 1    
    32   15   85 1    
    33   16   17 1    
    34   17   18 1    
    35   17   86 1    
    36   17   87 1    
    37   18   19 1    
    38   18   37 1    
    39   18   88 1    
    40   19   20 am   BACKBONE|DICT|INTERRES
    41   19   89 1    
    42   20   21 2    
    43   20   22 1    
    44   22   23 1    
    45   22   24 1    
    46   22   90 1    
    47   23   91 1    
    48   23   92 1    
    49   23   93 1    
    50   24   25 am   BACKBONE|DICT|INTERRES
    51   24   94 1    
    52   25   26 2    
    53   25   27 1    
    54   27   28 1    
    55   27   29 1    
    56   27   95 1    
    57   28   96 1    
    58   28   97 1    
    59   28   98 1    
    60   29   30 am   BACKBONE|DICT|INTERRES
    61   29   99 1    
    62   30   31 2    
    63   30   32 1    
    64   32   33 1    
    65   32   34 1    
    66   32  100 1    
    67   33  101 1    
    68   33  102 1    
    69   33  103 1    
    70   34   35 am   BACKBONE|DICT|INTERRES
    71   34  104 1    
    72   35   36 2    
    73   37   38 2    
    74   37   39 am   BACKBONE|DICT|INTERRES
    75   39   40 1    
    76   39  105 1    
    77   40   41 1    
    78   40   42 1    
    79   40  106 1    
    80   41  107 1    
    81   41  108 1    
    82   41  109 1    
    83   42   43 2    
    84   42   44 am   BACKBONE|DICT|INTERRES
    85   44   45 1    
    86   44  110 1    
    87   45   46 1    
    88   45   47 1    
    89   45  111 1    
    90   46  112 1    
    91   46  113 1    
    92   46  114 1    
    93   47   48 2    
    94   47   49 am   BACKBONE|DICT|INTERRES
    95   49   50 1    
    96   49  115 1    
    97   50   51 1    
    98   50   52 1    
    99   50  116 1    
   100   51  117 1    
   101   51  118 1    
   102   51  119 1    
   103   52   53 2    
   104   52   54 am   BACKBONE|DICT|INTERRES
   105   54   55 1    
   106   54  120 1    
   107   55   56 1    
   108   55   57 1    
   109   55  121 1    
   110   56  122 1    
   111   56  123 1    
   112   56  124 1    
   113   57   58 2    
   114   57   59 am   BACKBONE|DICT|INTERRES
   115   59   60 1    
   116   59  125 1    
   117   60   61 1    
   118   60   62 1    
   119   60  126 1    
   120   61  127 1    
   121   61  128 1    
   122   61  129 1    
   123   62   63 2    
   124   62   64 am   BACKBONE|DICT|INTERRES
   125   64   65 1    
   126   64  130 1    
   127   65   66 1    
   128   65   69 1    
   129   65  131 1    
   130   66   67 am   BACKBONE|DICT|INTERRES
   131   66   68 2    
   132   67  132 1    
   133   67  133 1    
   134   69   70 1    
   135   69  134 1    
   136   69  135 1    
   137   70   71 1    
   138   71  136 1    
   139   71  137 1    
@<TRIPOS>SUBSTRUCTURE
     1 UNK         1 GROUP             0       ****    0 ROOT    
