@<TRIPOS>MOLECULE
3R136
137   139    1
SMALL
USER_CHARGES


@<TRIPOS>ATOM
      1 CA         28.8971   31.0002   -1.8248 C.3       0 UNK        -0.1979 
      2 C          28.3854   29.6147   -1.4594 C.2       0 UNK         0.4864 
      3 O          27.1737   29.3911   -1.4670 O.2       0 UNK        -0.5359 
      4 N          29.2961   28.6892   -1.1285 N.am      1 UNK        -0.4318 
      5 CA         28.9863   27.2951   -0.7932 C.3       1 UNK         0.0824 
      6 C6         30.1786   26.5805   -0.1092 C.3       12 UNK        -0.0944 
      7 S7         30.6478   27.3559    1.4736 S.3       12 UNK        -0.2672 
      8 C8         32.1856   26.4613    1.8644 C.3       12 UNK         0.0333 
      9 C9         31.9762   25.3928    2.9305 C.ar      12 UNK        -0.0807 
     10 C10        32.5456   25.5433    4.2011 C.ar      12 UNK        -0.0894 
     11 C11        32.3572   24.5712    5.1928 C.ar      12 UNK        -0.0804 
     12 C12        31.5636   23.4584    4.9025 C.ar      12 UNK        -0.0824 
     13 C13        30.9855   23.2941    3.6411 C.ar      12 UNK        -0.0762 
     14 C14        31.2190   24.2508    2.6498 C.ar      12 UNK        -0.0782 
     15 C15        30.0976   22.0851    3.3669 C.3       12 UNK         0.0230 
     16 S16        28.3545   22.5228    3.0342 S.3       12 UNK        -0.2608 
     17 C17        27.9842   23.7912    4.2960 C.3       12 UNK        -0.0989 
     18 CA         27.9164   25.1985    3.6473 C.3       5 UNK         0.0716 
     19 N          26.6181   25.4657    3.0301 N.am      5 UNK        -0.4135 
     20 C          26.3717   25.4094    1.7189 C.2       4 UNK         0.5031 
     21 O          27.2083   25.0739    0.8786 O.2       4 UNK        -0.5229 
     22 CA         24.9723   25.8602    1.2611 C.3       4 UNK         0.0329 
     23 CB         24.8783   27.3951    1.2691 C.3       4 UNK        -0.2001 
     24 N          24.6417   25.3811   -0.0852 N.am      4 UNK        -0.4303 
     25 C          24.4244   24.1002   -0.4152 C.2       3 UNK         0.5044 
     26 O          24.4160   23.1768    0.3992 O.2       3 UNK        -0.5152 
     27 CA         24.1595   23.7829   -1.9008 C.3       3 UNK         0.0319 
     28 CB         22.6671   23.4769   -2.1113 C.3       3 UNK        -0.2001 
     29 N          24.5499   24.8507   -2.8323 N.am      3 UNK        -0.4354 
     30 C          25.7774   25.2322   -3.2236 C.2       2 UNK         0.4964 
     31 O          25.9159   26.1484   -4.0323 O.2       2 UNK        -0.5047 
     32 CA         27.0365   24.5292   -2.6696 C.3       2 UNK         0.0288 
     33 CB         27.9301   23.9638   -3.7932 C.3       2 UNK        -0.2113 
     34 N          27.7688   25.4192   -1.7629 N.am      2 UNK        -0.4145 
     35 C          28.5111   26.5030   -2.0325 C.2       1 UNK         0.5006 
     36 O          28.8502   26.8646   -3.1630 O.2       1 UNK        -0.5103 
     37 C          28.1942   26.3199    4.6573 C.2       5 UNK         0.5055 
     38 O          27.2548   26.8433    5.2620 O.2       5 UNK        -0.5220 
     39 N          29.4810   26.6752    4.7892 N.am      6 UNK        -0.4450 
     40 CA         30.0284   27.8022    5.5586 C.3       6 UNK         0.0367 
     41 CB         29.8379   27.5853    7.0736 C.3       6 UNK        -0.1929 
     42 C          29.5270   29.1808    5.0796 C.2       6 UNK         0.5070 
     43 O          29.4866   30.1342    5.8591 O.2       6 UNK        -0.5237 
     44 N          29.1580   29.2699    3.7969 N.am      7 UNK        -0.4739 
     45 CA         28.5998   30.4534    3.1525 C.3       7 UNK         0.0276 
     46 CB         27.5500   29.9994    2.1246 C.3       7 UNK        -0.1927 
     47 C          29.7185   31.3026    2.5322 C.2       7 UNK         0.5013 
     48 O          29.8300   31.3830    1.3083 O.2       7 UNK        -0.5193 
     49 N          30.5437   31.9020    3.4008 N.am      8 UNK        -0.4253 
     50 CA         31.6047   32.8900    3.1425 C.3       8 UNK         0.0242 
     51 CB         31.0147   34.1753    2.5290 C.3       8 UNK        -0.2000 
     52 C          32.8182   32.4110    2.3203 C.2       8 UNK         0.4948 
     53 O          33.9138   32.9279    2.5425 O.2       8 UNK        -0.5275 
     54 N          32.6294   31.4556    1.3996 N.am      9 UNK        -0.4246 
     55 CA         33.6691   30.8940    0.5262 C.3       9 UNK         0.0261 
     56 CB         33.0201   29.9520   -0.5002 C.3       9 UNK        -0.1959 
     57 C          34.7967   30.1714    1.2865 C.2       9 UNK         0.5033 
     58 O          35.9414   30.1827    0.8312 O.2       9 UNK        -0.5390 
     59 N          34.4535   29.5870    2.4368 N.am      10 UNK        -0.4215 
     60 CA         35.3469   29.0128    3.4340 C.3       10 UNK         0.0240 
     61 CB         35.8632   27.6299    2.9873 C.3       10 UNK        -0.1982 
     62 C          34.5598   28.9305    4.7470 C.2       10 UNK         0.4970 
     63 O          33.3369   29.1026    4.7336 O.2       10 UNK        -0.4916 
     64 N          35.2721   28.6558    5.8453 N.am      11 UNK        -0.4279 
     65 CA         34.7269   28.4778    7.2048 C.3       11 UNK         0.1003 
     66 C          34.1503   29.7739    7.8553 C.2       11 UNK         0.5709 
     67 N          34.4439   30.9611    7.3380 N.am      11 UNK        -0.7358 
     68 O          33.4561   29.7101    8.8673 O.2       11 UNK        -0.4999 
     69 C69        33.7500   27.2708    7.3198 C.3       12 UNK        -0.0954 
     70 S70        34.4672   25.7004    6.7339 S.3       12 UNK        -0.2268 
     71 C71        32.9629   24.6759    6.5950 C.3       12 UNK         0.0203 
     72 H72        28.4436   31.7476   -1.1741 H         1 UNK         0.0888 
     73 H73        29.9784   31.0769   -1.7172 H         1 UNK         0.0888 
     74 H74        28.6375   31.2387   -2.8557 H         1 UNK         0.0888 
     75 H75        30.2759   28.9265   -1.1405 H         1 UNK         0.3017 
     76 H76        28.1555   27.3184   -0.0857 H         1 UNK         0.0873 
     77 H77        29.9307   25.5377    0.0935 H         1 UNK         0.0745 
     78 H78        31.0452   26.5698   -0.7731 H         1 UNK         0.0745 
     79 H79        32.9110   27.1989    2.2039 H         1 UNK         0.0705 
     80 H80        32.6105   26.0098    0.9671 H         1 UNK         0.0705 
     81 H81        33.1345   26.4221    4.4156 H         1 UNK         0.1334 
     82 H82        31.3919   22.7141    5.6687 H         1 UNK         0.1417 
     83 H83        30.7777   24.1193    1.6720 H         1 UNK         0.1562 
     84 H84        30.1227   21.3908    4.2083 H         1 UNK         0.0748 
     85 H85        30.4928   21.5370    2.5107 H         1 UNK         0.0748 
     86 H86        28.7353   23.7416    5.0859 H         1 UNK         0.0940 
     87 H87        27.0386   23.5429    4.7811 H         1 UNK         0.0940 
     88 H88        28.6932   25.2815    2.8852 H         1 UNK         0.0703 
     89 H89        25.9184   25.8300    3.6632 H         1 UNK         0.3081 
     90 H90        24.2347   25.4552    1.9572 H         1 UNK         0.0719 
     91 H91        25.6181   27.8503    0.6084 H         1 UNK         0.0809 
     92 H92        23.8922   27.7348    0.9516 H         1 UNK         0.0809 
     93 H93        25.0441   27.7931    2.2706 H         1 UNK         0.0809 
     94 H94        24.6296   26.0707   -0.8220 H         1 UNK         0.2990 
     95 H95        24.7108   22.8758   -2.1539 H         1 UNK         0.0690 
     96 H96        22.4642   23.1734   -3.1387 H         1 UNK         0.0788 
     97 H97        22.0406   24.3409   -1.8855 H         1 UNK         0.0788 
     98 H98        22.3395   22.6603   -1.4659 H         1 UNK         0.0788 
     99 H99        23.7743   25.3556   -3.2365 H         1 UNK         0.2993 
    100 H100       26.7565   23.6780   -2.0537 H         1 UNK         0.0949 
    101 H101       28.2281   24.7291   -4.5103 H         1 UNK         0.0767 
    102 H102       28.8358   23.5107   -3.3901 H         1 UNK         0.0767 
    103 H103       27.4007   23.1915   -4.3523 H         1 UNK         0.0767 
    104 H104       27.5855   25.2372   -0.7725 H         1 UNK         0.3013 
    105 H105       30.1680   26.1627    4.2489 H         1 UNK         0.3121 
    106 H106       31.0978   27.8030    5.3553 H         1 UNK         0.0774 
    107 H107       30.3791   28.3395    7.6465 H         1 UNK         0.0815 
    108 H108       28.7884   27.6485    7.3618 H         1 UNK         0.0815 
    109 H109       30.2149   26.6118    7.3855 H         1 UNK         0.0815 
    110 H110       29.3060   28.4665    3.2008 H         1 UNK         0.2987 
    111 H111       28.0887   31.0758    3.8907 H         1 UNK         0.0949 
    112 H112       27.1588   30.8440    1.5558 H         1 UNK         0.0806 
    113 H113       27.9671   29.2881    1.4132 H         1 UNK         0.0806 
    114 H114       26.7044   29.5212    2.6174 H         1 UNK         0.0806 
    115 H115       30.3953   31.6819    4.3790 H         1 UNK         0.3010 
    116 H116       31.9963   33.1504    4.1274 H         1 UNK         0.0829 
    117 H117       30.2226   34.5869    3.1545 H         1 UNK         0.0813 
    118 H118       31.7798   34.9465    2.4280 H         1 UNK         0.0813 
    119 H119       30.6010   33.9990    1.5354 H         1 UNK         0.0813 
    120 H120       31.6695   31.1561    1.2436 H         1 UNK         0.3038 
    121 H121       34.1250   31.7259   -0.0147 H         1 UNK         0.0769 
    122 H122       33.7690   29.5350   -1.1751 H         1 UNK         0.0811 
    123 H123       32.2910   30.4792   -1.1145 H         1 UNK         0.0811 
    124 H124       32.5164   29.1156   -0.0166 H         1 UNK         0.0811 
    125 H125       33.4955   29.6640    2.7600 H         1 UNK         0.3204 
    126 H126       36.1896   29.6920    3.5788 H         1 UNK         0.0748 
    127 H127       36.5820   27.2308    3.7037 H         1 UNK         0.0771 
    128 H128       35.0609   26.8988    2.8995 H         1 UNK         0.0771 
    129 H129       36.3709   27.6840    2.0243 H         1 UNK         0.0771 
    130 H130       36.2716   28.5397    5.7627 H         1 UNK         0.2980 
    131 H131       35.5927   28.2376    7.8227 H         1 UNK         0.0545 
    132 H132       35.0236   31.0342    6.5183 H         1 UNK         0.3459 
    133 H133       34.0771   31.7919    7.7746 H         1 UNK         0.3459 
    134 H134       32.8328   27.4696    6.7688 H         1 UNK         0.0616 
    135 H135       33.4513   27.1190    8.3584 H         1 UNK         0.0616 
    136 H136       32.2022   25.0409    7.2859 H         1 UNK         0.0634 
    137 H137       33.2296   23.6760    6.9406 H         1 UNK         0.0634 
@<TRIPOS>BOND
     1    1    2 1    
     2    1   72 1    
     3    1   73 1    
     4    1   74 1    
     5    2    3 2    
     6    2    4 am   BACKBONE|DICT|INTERRES
     7    4    5 1    
     8    4   75 1    
     9    5    6 1    
    10    5   35 1    
    11    5   76 1    
    12    6    7 1    
    13    6   77 1    
    14    6   78 1    
    15    7    8 1    
    16    8    9 1    
    17    8   79 1    
    18    8   80 1    
    19    9   10 ar   
    20    9   14 ar   
    21   10   11 ar   
    22   10   81 1    
    23   11   12 ar   
    24   11   71 1    
    25   12   13 ar   
    26   12   82 1    
    27   13   14 ar   
    28   13   15 1    
    29   14   83 1    
    30   15   16 1    
    31   15   84 1    
    32   15   85 1    
    33   16   17 1    
    34   17   18 1    
    35   17   86 1    
    36   17   87 1    
    37   18   19 1    
    38   18   37 1    
    39   18   88 1    
    40   19   20 am   BACKBONE|DICT|INTERRES
    41   19   89 1    
    42   20   21 2    
    43   20   22 1    
    44   22   23 1    
    45   22   24 1    
    46   22   90 1    
    47   23   91 1    
    48   23   92 1    
    49   23   93 1    
    50   24   25 am   BACKBONE|DICT|INTERRES
    51   24   94 1    
    52   25   26 2    
    53   25   27 1    
    54   27   28 1    
    55   27   29 1    
    56   27   95 1    
    57   28   96 1    
    58   28   97 1    
    59   28   98 1    
    60   29   30 am   BACKBONE|DICT|INTERRES
    61   29   99 1    
    62   30   31 2    
    63   30   32 1    
    64   32   33 1    
    65   32   34 1    
    66   32  100 1    
    67   33  101 1    
    68   33  102 1    
    69   33  103 1    
    70   34   35 am   BACKBONE|DICT|INTERRES
    71   34  104 1    
    72   35   36 2    
    73   37   38 2    
    74   37   39 am   BACKBONE|DICT|INTERRES
    75   39   40 1    
    76   39  105 1    
    77   40   41 1    
    78   40   42 1    
    79   40  106 1    
    80   41  107 1    
    81   41  108 1    
    82   41  109 1    
    83   42   43 2    
    84   42   44 am   BACKBONE|DICT|INTERRES
    85   44   45 1    
    86   44  110 1    
    87   45   46 1    
    88   45   47 1    
    89   45  111 1    
    90   46  112 1    
    91   46  113 1    
    92   46  114 1    
    93   47   48 2    
    94   47   49 am   BACKBONE|DICT|INTERRES
    95   49   50 1    
    96   49  115 1    
    97   50   51 1    
    98   50   52 1    
    99   50  116 1    
   100   51  117 1    
   101   51  118 1    
   102   51  119 1    
   103   52   53 2    
   104   52   54 am   BACKBONE|DICT|INTERRES
   105   54   55 1    
   106   54  120 1    
   107   55   56 1    
   108   55   57 1    
   109   55  121 1    
   110   56  122 1    
   111   56  123 1    
   112   56  124 1    
   113   57   58 2    
   114   57   59 am   BACKBONE|DICT|INTERRES
   115   59   60 1    
   116   59  125 1    
   117   60   61 1    
   118   60   62 1    
   119   60  126 1    
   120   61  127 1    
   121   61  128 1    
   122   61  129 1    
   123   62   63 2    
   124   62   64 am   BACKBONE|DICT|INTERRES
   125   64   65 1    
   126   64  130 1    
   127   65   66 1    
   128   65   69 1    
   129   65  131 1    
   130   66   67 am   BACKBONE|DICT|INTERRES
   131   66   68 2    
   132   67  132 1    
   133   67  133 1    
   134   69   70 1    
   135   69  134 1    
   136   69  135 1    
   137   70   71 1    
   138   71  136 1    
   139   71  137 1    
@<TRIPOS>SUBSTRUCTURE
     1 UNK         1 GROUP             0       ****    0 ROOT    
