@<TRIPOS>MOLECULE
3R136
137   139    1
SMALL
USER_CHARGES


@<TRIPOS>ATOM
      1 CA         27.9477   19.2464   -1.7362 C.3       0 UNK        -0.1979 
      2 C          29.2433   19.8750   -1.2437 C.2       0 UNK         0.4864 
      3 O          30.3227   19.4664   -1.6761 O.2       0 UNK        -0.5359 
      4 N          29.1430   20.8576   -0.3388 N.am      1 UNK        -0.4318 
      5 CA         30.2738   21.6264    0.1930 C.3       1 UNK         0.0824 
      6 C6         29.9556   22.1784    1.6096 C.3       12 UNK        -0.0944 
      7 S7         31.4492   22.2500    2.6588 S.3       12 UNK        -0.2672 
      8 C8         30.7941   21.8571    4.3125 C.3       12 UNK         0.0333 
      9 C9         29.9747   22.9936    4.9149 C.ar      12 UNK        -0.0807 
     10 C10        30.6099   24.0483    5.5823 C.ar      12 UNK        -0.0894 
     11 C11        29.8594   25.0582    6.1961 C.ar      12 UNK        -0.0804 
     12 C12        28.4625   24.9988    6.1460 C.ar      12 UNK        -0.0824 
     13 C13        27.8148   23.9549    5.4791 C.ar      12 UNK        -0.0762 
     14 C14        28.5773   22.9599    4.8586 C.ar      12 UNK        -0.0782 
     15 C15        26.2932   23.8691    5.4761 C.3       12 UNK         0.0230 
     16 S16        25.5488   24.6638    4.0158 S.3       12 UNK        -0.2608 
     17 C17        25.6272   26.4376    4.4526 C.3       12 UNK        -0.0989 
     18 CA         26.8132   27.1574    3.7585 C.3       5 UNK         0.0716 
     19 N          26.7972   27.0309    2.2972 N.am      5 UNK        -0.4135 
     20 C          25.8854   27.4674    1.4242 C.2       4 UNK         0.5031 
     21 O          24.9421   28.1983    1.7298 O.2       4 UNK        -0.5229 
     22 CA         26.0710   27.0014   -0.0378 C.3       4 UNK         0.0329 
     23 CB         25.0019   27.5870   -0.9799 C.3       4 UNK        -0.2001 
     24 N          27.3985   27.2709   -0.6103 N.am      4 UNK        -0.4303 
     25 C          28.5549   26.6865   -0.2682 C.2       3 UNK         0.5044 
     26 O          28.6823   25.9077    0.6834 O.2       3 UNK        -0.5152 
     27 CA         29.7764   27.0375   -1.1243 C.3       3 UNK         0.0319 
     28 CB         30.3158   28.4428   -0.8035 C.3       3 UNK        -0.2001 
     29 N          30.8029   26.0290   -0.8793 N.am      3 UNK        -0.4354 
     30 C          31.6946   25.5841   -1.7682 C.2       2 UNK         0.4964 
     31 O          31.8515   26.0735   -2.8879 O.2       2 UNK        -0.5047 
     32 CA         32.5416   24.3637   -1.3552 C.3       2 UNK         0.0288 
     33 CB         33.8296   24.8232   -0.6525 C.3       2 UNK        -0.2113 
     34 N          31.8592   23.3722   -0.5085 N.am      2 UNK        -0.4145 
     35 C          30.7175   22.7291   -0.8014 C.2       1 UNK         0.5006 
     36 O          30.0395   22.9677   -1.8053 O.2       1 UNK        -0.5103 
     37 C          27.0266   28.5948    4.2899 C.2       5 UNK         0.5055 
     38 O          27.0687   28.7778    5.5076 O.2       5 UNK        -0.5220 
     39 N          27.1954   29.5831    3.4013 N.am      6 UNK        -0.4450 
     40 CA         27.5086   30.9691    3.7415 C.3       6 UNK         0.0367 
     41 CB         27.0811   31.8859    2.5827 C.3       6 UNK        -0.1929 
     42 C          29.0104   31.1026    4.0199 C.2       6 UNK         0.5070 
     43 O          29.8099   30.9297    3.0987 O.2       6 UNK        -0.5237 
     44 N          29.3747   31.4051    5.2736 N.am      7 UNK        -0.4739 
     45 CA         30.7638   31.5299    5.7378 C.3       7 UNK         0.0276 
     46 CB         30.7802   31.8186    7.2466 C.3       7 UNK        -0.1927 
     47 C          31.5770   32.5864    4.9719 C.2       7 UNK         0.5013 
     48 O          32.7380   32.3397    4.6441 O.2       7 UNK        -0.5193 
     49 N          30.9263   33.7097    4.6380 N.am      8 UNK        -0.4253 
     50 CA         31.4816   34.8059    3.8383 C.3       8 UNK         0.0242 
     51 CB         30.4930   35.9834    3.8479 C.3       8 UNK        -0.2000 
     52 C          31.8376   34.4170    2.3899 C.2       8 UNK         0.4948 
     53 O          32.6605   35.0979    1.7774 O.2       8 UNK        -0.5275 
     54 N          31.2353   33.3366    1.8725 N.am      9 UNK        -0.4246 
     55 CA         31.5146   32.7785    0.5485 C.3       9 UNK         0.0261 
     56 CB         30.1965   32.2617   -0.0572 C.3       9 UNK        -0.1959 
     57 C          32.5727   31.6584    0.5899 C.2       9 UNK         0.5033 
     58 O          32.8293   31.0667   -0.4589 O.2       9 UNK        -0.5390 
     59 N          33.1496   31.3807    1.7735 N.am      10 UNK        -0.4215 
     60 CA         34.0196   30.2456    2.1062 C.3       10 UNK         0.0240 
     61 CB         35.3164   30.2403    1.2673 C.3       10 UNK        -0.1982 
     62 C          33.2232   28.9338    2.0109 C.2       10 UNK         0.4970 
     63 O          33.3364   28.2113    1.0197 O.2       10 UNK        -0.4916 
     64 N          32.3865   28.7097    3.0329 N.am      11 UNK        -0.4279 
     65 CA         31.3926   27.6327    3.1392 C.3       11 UNK         0.1003 
     66 C          31.9026   26.2039    2.8068 C.2       11 UNK         0.5709 
     67 N          31.0403   25.3696    2.2473 N.am      11 UNK        -0.7358 
     68 O          33.0348   25.8287    3.1059 O.2       11 UNK        -0.4999 
     69 C69        30.6661   27.6707    4.5093 C.3       12 UNK        -0.0954 
     70 S70        31.6949   27.1906    5.9410 S.3       12 UNK        -0.2268 
     71 C71        30.5387   26.2004    6.9503 C.3       12 UNK         0.0203 
     72 H72        27.9443   18.1777   -1.5237 H         1 UNK         0.0888 
     73 H73        27.0727   19.6892   -1.2606 H         1 UNK         0.0888 
     74 H74        27.8521   19.3807   -2.8134 H         1 UNK         0.0888 
     75 H75        28.2272   21.1751   -0.0556 H         1 UNK         0.3017 
     76 H76        31.1123   20.9310    0.2796 H         1 UNK         0.0873 
     77 H77        29.4699   23.1555    1.5706 H         1 UNK         0.0745 
     78 H78        29.2433   21.5205    2.1100 H         1 UNK         0.0745 
     79 H79        30.2055   20.9397    4.2640 H         1 UNK         0.0705 
     80 H80        31.6352   21.6357    4.9711 H         1 UNK         0.0705 
     81 H81        31.6900   24.0812    5.6288 H         1 UNK         0.1334 
     82 H82        27.8749   25.7647    6.6338 H         1 UNK         0.1417 
     83 H83        28.0795   22.1432    4.3538 H         1 UNK         0.1562 
     84 H84        25.8818   24.3056    6.3876 H         1 UNK         0.0748 
     85 H85        25.9900   22.8210    5.4883 H         1 UNK         0.0748 
     86 H86        25.6916   26.5317    5.5379 H         1 UNK         0.0940 
     87 H87        24.6820   26.9048    4.1708 H         1 UNK         0.0940 
     88 H88        27.7094   26.6187    4.0539 H         1 UNK         0.0703 
     89 H89        27.5437   26.4620    1.9002 H         1 UNK         0.3081 
     90 H90        25.9358   25.9176   -0.0277 H         1 UNK         0.0719 
     91 H91        25.0767   28.6730   -1.0488 H         1 UNK         0.0809 
     92 H92        25.0907   27.1783   -1.9867 H         1 UNK         0.0809 
     93 H93        23.9964   27.3511   -0.6281 H         1 UNK         0.0809 
     94 H94        27.4133   27.9241   -1.3805 H         1 UNK         0.2990 
     95 H95        29.4742   26.9947   -2.1729 H         1 UNK         0.0690 
     96 H96        31.1984   28.6743   -1.4004 H         1 UNK         0.0788 
     97 H97        30.5969   28.5448    0.2429 H         1 UNK         0.0788 
     98 H98        29.5725   29.2111   -1.0175 H         1 UNK         0.0788 
     99 H99        30.7165   25.5483    0.0074 H         1 UNK         0.2993 
    100 H100       32.8233   23.8502   -2.2768 H         1 UNK         0.0949 
    101 H101       34.5005   23.9860   -0.4591 H         1 UNK         0.0767 
    102 H102       34.3761   25.5400   -1.2672 H         1 UNK         0.0767 
    103 H103       33.6159   25.3117    0.2994 H         1 UNK         0.0767 
    104 H104       32.3408   23.1094    0.3402 H         1 UNK         0.3013 
    105 H105       27.1628   29.3529    2.4196 H         1 UNK         0.3121 
    106 H106       26.9454   31.2600    4.6310 H         1 UNK         0.0774 
    107 H107       27.3171   32.9282    2.8015 H         1 UNK         0.0815 
    108 H108       27.5840   31.6269    1.6504 H         1 UNK         0.0815 
    109 H109       26.0066   31.8267    2.4087 H         1 UNK         0.0815 
    110 H110       28.6537   31.5053    5.9747 H         1 UNK         0.2987 
    111 H111       31.2561   30.5697    5.5766 H         1 UNK         0.0949 
    112 H112       30.2679   32.7508    7.4880 H         1 UNK         0.0806 
    113 H113       30.3017   31.0162    7.8085 H         1 UNK         0.0806 
    114 H114       31.8032   31.9033    7.6166 H         1 UNK         0.0806 
    115 H115       29.9683   33.8081    4.9420 H         1 UNK         0.3010 
    116 H116       32.4065   35.1300    4.3204 H         1 UNK         0.0829 
    117 H117       30.2996   36.3327    4.8623 H         1 UNK         0.0813 
    118 H118       30.8895   36.8310    3.2868 H         1 UNK         0.0813 
    119 H119       29.5377   35.7127    3.3961 H         1 UNK         0.0813 
    120 H120       30.6043   32.7943    2.4524 H         1 UNK         0.3038 
    121 H121       31.8996   33.5618   -0.1077 H         1 UNK         0.0769 
    122 H122       29.8054   31.4085    0.4972 H         1 UNK         0.0811 
    123 H123       30.3416   31.9365   -1.0882 H         1 UNK         0.0811 
    124 H124       29.4307   33.0373   -0.0685 H         1 UNK         0.0811 
    125 H125       32.8626   31.9347    2.5731 H         1 UNK         0.3204 
    126 H126       34.3128   30.3762    3.1494 H         1 UNK         0.0748 
    127 H127       35.9869   29.4484    1.6027 H         1 UNK         0.0771 
    128 H128       35.1259   30.0694    0.2076 H         1 UNK         0.0771 
    129 H129       35.8531   31.1841    1.3629 H         1 UNK         0.0771 
    130 H130       32.3813   29.3695    3.7946 H         1 UNK         0.2980 
    131 H131       30.6396   27.8767    2.3896 H         1 UNK         0.0545 
    132 H132       31.3169   24.4025    2.1714 H         1 UNK         0.3459 
    133 H133       30.0935   25.6447    2.0163 H         1 UNK         0.3459 
    134 H134       29.8019   27.0158    4.4602 H         1 UNK         0.0616 
    135 H135       30.2595   28.6604    4.7000 H         1 UNK         0.0616 
    136 H136       29.7948   26.8783    7.3718 H         1 UNK         0.0634 
    137 H137       31.0859   25.7845    7.7970 H         1 UNK         0.0634 
@<TRIPOS>BOND
     1    1    2 1    
     2    1   72 1    
     3    1   73 1    
     4    1   74 1    
     5    2    3 2    
     6    2    4 am   BACKBONE|DICT|INTERRES
     7    4    5 1    
     8    4   75 1    
     9    5    6 1    
    10    5   35 1    
    11    5   76 1    
    12    6    7 1    
    13    6   77 1    
    14    6   78 1    
    15    7    8 1    
    16    8    9 1    
    17    8   79 1    
    18    8   80 1    
    19    9   10 ar   
    20    9   14 ar   
    21   10   11 ar   
    22   10   81 1    
    23   11   12 ar   
    24   11   71 1    
    25   12   13 ar   
    26   12   82 1    
    27   13   14 ar   
    28   13   15 1    
    29   14   83 1    
    30   15   16 1    
    31   15   84 1    
    32   15   85 1    
    33   16   17 1    
    34   17   18 1    
    35   17   86 1    
    36   17   87 1    
    37   18   19 1    
    38   18   37 1    
    39   18   88 1    
    40   19   20 am   BACKBONE|DICT|INTERRES
    41   19   89 1    
    42   20   21 2    
    43   20   22 1    
    44   22   23 1    
    45   22   24 1    
    46   22   90 1    
    47   23   91 1    
    48   23   92 1    
    49   23   93 1    
    50   24   25 am   BACKBONE|DICT|INTERRES
    51   24   94 1    
    52   25   26 2    
    53   25   27 1    
    54   27   28 1    
    55   27   29 1    
    56   27   95 1    
    57   28   96 1    
    58   28   97 1    
    59   28   98 1    
    60   29   30 am   BACKBONE|DICT|INTERRES
    61   29   99 1    
    62   30   31 2    
    63   30   32 1    
    64   32   33 1    
    65   32   34 1    
    66   32  100 1    
    67   33  101 1    
    68   33  102 1    
    69   33  103 1    
    70   34   35 am   BACKBONE|DICT|INTERRES
    71   34  104 1    
    72   35   36 2    
    73   37   38 2    
    74   37   39 am   BACKBONE|DICT|INTERRES
    75   39   40 1    
    76   39  105 1    
    77   40   41 1    
    78   40   42 1    
    79   40  106 1    
    80   41  107 1    
    81   41  108 1    
    82   41  109 1    
    83   42   43 2    
    84   42   44 am   BACKBONE|DICT|INTERRES
    85   44   45 1    
    86   44  110 1    
    87   45   46 1    
    88   45   47 1    
    89   45  111 1    
    90   46  112 1    
    91   46  113 1    
    92   46  114 1    
    93   47   48 2    
    94   47   49 am   BACKBONE|DICT|INTERRES
    95   49   50 1    
    96   49  115 1    
    97   50   51 1    
    98   50   52 1    
    99   50  116 1    
   100   51  117 1    
   101   51  118 1    
   102   51  119 1    
   103   52   53 2    
   104   52   54 am   BACKBONE|DICT|INTERRES
   105   54   55 1    
   106   54  120 1    
   107   55   56 1    
   108   55   57 1    
   109   55  121 1    
   110   56  122 1    
   111   56  123 1    
   112   56  124 1    
   113   57   58 2    
   114   57   59 am   BACKBONE|DICT|INTERRES
   115   59   60 1    
   116   59  125 1    
   117   60   61 1    
   118   60   62 1    
   119   60  126 1    
   120   61  127 1    
   121   61  128 1    
   122   61  129 1    
   123   62   63 2    
   124   62   64 am   BACKBONE|DICT|INTERRES
   125   64   65 1    
   126   64  130 1    
   127   65   66 1    
   128   65   69 1    
   129   65  131 1    
   130   66   67 am   BACKBONE|DICT|INTERRES
   131   66   68 2    
   132   67  132 1    
   133   67  133 1    
   134   69   70 1    
   135   69  134 1    
   136   69  135 1    
   137   70   71 1    
   138   71  136 1    
   139   71  137 1    
@<TRIPOS>SUBSTRUCTURE
     1 UNK         1 GROUP             0       ****    0 ROOT    
