@<TRIPOS>MOLECULE
3R136
137   139    1
SMALL
USER_CHARGES


@<TRIPOS>ATOM
      1 CA         24.4563   21.9677    3.6597 C.3       0 UNK        -0.1979 
      2 C          25.1434   22.6427    2.4828 C.2       0 UNK         0.4864 
      3 O          24.4920   23.3600    1.7226 O.2       0 UNK        -0.5359 
      4 N          26.4604   22.4378    2.3342 N.am      1 UNK        -0.4318 
      5 CA         27.2922   22.9803    1.2492 C.3       1 UNK         0.0824 
      6 C6         28.7255   22.3980    1.2607 C.3       12 UNK        -0.0944 
      7 S7         29.6066   22.6080    2.8479 S.3       12 UNK        -0.2672 
      8 C8         31.2344   21.9037    2.4379 C.3       12 UNK         0.0333 
      9 C9         32.1885   22.9639    1.9073 C.ar      12 UNK        -0.0807 
     10 C10        33.1136   23.5652    2.7663 C.ar      12 UNK        -0.0894 
     11 C11        34.0002   24.5369    2.2912 C.ar      12 UNK        -0.0804 
     12 C12        33.9524   24.9094    0.9442 C.ar      12 UNK        -0.0824 
     13 C13        33.0368   24.3096    0.0737 C.ar      12 UNK        -0.0762 
     14 C14        32.1636   23.3323    0.5588 C.ar      12 UNK        -0.0782 
     15 C15        33.0096   24.7000   -1.3965 C.3       12 UNK         0.0230 
     16 S16        32.2989   26.3552   -1.6461 S.3       12 UNK        -0.2608 
     17 C17        30.5405   26.0864   -1.2294 C.3       12 UNK        -0.0989 
     18 CA         29.6317   27.2212   -1.7765 C.3       5 UNK         0.0716 
     19 N          28.2572   26.7517   -1.9473 N.am      5 UNK        -0.4135 
     20 C          27.3983   27.2018   -2.8698 C.2       4 UNK         0.5031 
     21 O          27.6737   28.0751   -3.6943 O.2       4 UNK        -0.5229 
     22 CA         26.0047   26.5577   -2.9022 C.3       4 UNK         0.0329 
     23 CB         26.0737   25.1498   -3.5186 C.3       4 UNK        -0.2001 
     24 N          25.4056   26.4713   -1.5683 N.am      4 UNK        -0.4303 
     25 C          24.2223   27.0020   -1.2238 C.2       3 UNK         0.5044 
     26 O          23.5129   27.6504   -1.9946 O.2       3 UNK        -0.5152 
     27 CA         23.7154   26.7609    0.2133 C.3       3 UNK         0.0319 
     28 CB         22.6243   25.6782    0.2194 C.3       3 UNK        -0.2001 
     29 N          24.7753   26.3797    1.1495 N.am      3 UNK        -0.4354 
     30 C          25.7126   27.2268    1.6026 C.2       2 UNK         0.4964 
     31 O          25.6893   28.4356    1.3759 O.2       2 UNK        -0.5047 
     32 CA         26.8827   26.6467    2.4235 C.3       2 UNK         0.0288 
     33 CB         26.7280   26.9929    3.9136 C.3       2 UNK        -0.2113 
     34 N          27.0614   25.1969    2.3016 N.am      2 UNK        -0.4145 
     35 C          27.3067   24.5216    1.1696 C.2       1 UNK         0.5006 
     36 O          27.4760   25.0642    0.0767 O.2       1 UNK        -0.5103 
     37 C          29.6756   28.4757   -0.8792 C.2       5 UNK         0.5055 
     38 O          28.7065   28.7917   -0.1858 O.2       5 UNK        -0.5220 
     39 N          30.8417   29.1344   -0.8633 N.am      6 UNK        -0.4450 
     40 CA         31.1720   30.2984   -0.0335 C.3       6 UNK         0.0367 
     41 CB         32.4703   30.9307   -0.5626 C.3       6 UNK        -0.1929 
     42 C          31.2917   29.9981    1.4752 C.2       6 UNK         0.5070 
     43 O          31.5041   30.9291    2.2519 O.2       6 UNK        -0.5237 
     44 N          31.1291   28.7278    1.8770 N.am      7 UNK        -0.4739 
     45 CA         31.1598   28.2227    3.2554 C.3       7 UNK         0.0276 
     46 CB         30.8758   26.7115    3.2376 C.3       7 UNK        -0.1927 
     47 C          30.2111   28.9407    4.2363 C.2       7 UNK         0.5013 
     48 O          30.4795   28.9344    5.4372 O.2       7 UNK        -0.5193 
     49 N          29.1644   29.6017    3.7173 N.am      8 UNK        -0.4253 
     50 CA         28.2805   30.5118    4.4554 C.3       8 UNK         0.0242 
     51 CB         27.1849   31.0306    3.5100 C.3       8 UNK        -0.2000 
     52 C          29.0087   31.7040    5.1081 C.2       8 UNK         0.4948 
     53 O          28.5492   32.1916    6.1409 O.2       8 UNK        -0.5275 
     54 N          30.1329   32.1374    4.5185 N.am      9 UNK        -0.4246 
     55 CA         31.0081   33.1870    5.0486 C.3       9 UNK         0.0261 
     56 CB         31.6270   33.9540    3.8659 C.3       9 UNK        -0.1959 
     57 C          32.1043   32.6372    5.9858 C.2       9 UNK         0.5033 
     58 O          32.9630   33.4165    6.4026 O.2       9 UNK        -0.5390 
     59 N          32.0551   31.3301    6.2917 N.am      10 UNK        -0.4215 
     60 CA         33.0268   30.4969    7.0080 C.3       10 UNK         0.0240 
     61 CB         33.4631   31.1016    8.3579 C.3       10 UNK        -0.1982 
     62 C          34.2315   30.1381    6.1232 C.2       10 UNK         0.4970 
     63 O          34.7891   30.9989    5.4398 O.2       10 UNK        -0.4916 
     64 N          34.6101   28.8570    6.1600 N.am      11 UNK        -0.4279 
     65 CA         35.7680   28.2989    5.4487 C.3       11 UNK         0.1003 
     66 C          37.1175   28.8012    6.0313 C.2       11 UNK         0.5709 
     67 N          38.1336   28.9605    5.1942 N.am      11 UNK        -0.7358 
     68 O          37.2626   29.0066    7.2355 O.2       11 UNK        -0.4999 
     69 C69        35.7159   26.7502    5.4367 C.3       12 UNK        -0.0954 
     70 S70        34.2468   26.1213    4.5564 S.3       12 UNK        -0.2268 
     71 C71        35.0282   25.1589    3.2257 C.3       12 UNK         0.0203 
     72 H72        25.1527   21.3769    4.2545 H         1 UNK         0.0888 
     73 H73        24.0044   22.7166    4.3095 H         1 UNK         0.0888 
     74 H74        23.6681   21.3057    3.3027 H         1 UNK         0.0888 
     75 H75        26.9512   21.8567    2.9998 H         1 UNK         0.3017 
     76 H76        26.8237   22.6503    0.3192 H         1 UNK         0.0873 
     77 H77        28.6806   21.3299    1.0421 H         1 UNK         0.0745 
     78 H78        29.3132   22.8385    0.4552 H         1 UNK         0.0745 
     79 H79        31.1246   21.0951    1.7137 H         1 UNK         0.0705 
     80 H80        31.6495   21.4464    3.3373 H         1 UNK         0.0705 
     81 H81        33.1460   23.2789    3.8088 H         1 UNK         0.1334 
     82 H82        34.6327   25.6604    0.5661 H         1 UNK         0.1417 
     83 H83        31.4692   22.8550   -0.1172 H         1 UNK         0.1562 
     84 H84        32.4534   23.9713   -1.9884 H         1 UNK         0.0748 
     85 H85        34.0283   24.6933   -1.7869 H         1 UNK         0.0748 
     86 H86        30.4269   25.9565   -0.1507 H         1 UNK         0.0940 
     87 H87        30.2457   25.1337   -1.6734 H         1 UNK         0.0940 
     88 H88        30.0043   27.5116   -2.7617 H         1 UNK         0.0703 
     89 H89        27.9396   26.0731   -1.2571 H         1 UNK         0.3081 
     90 H90        25.3872   27.1764   -3.5568 H         1 UNK         0.0719 
     91 H91        26.5320   25.1776   -4.5083 H         1 UNK         0.0809 
     92 H92        26.6605   24.4654   -2.9044 H         1 UNK         0.0809 
     93 H93        25.0778   24.7223   -3.6354 H         1 UNK         0.0809 
     94 H94        25.9405   25.9796   -0.8611 H         1 UNK         0.2990 
     95 H95        23.2679   27.6934    0.5638 H         1 UNK         0.0690 
     96 H96        22.2283   25.5177    1.2223 H         1 UNK         0.0788 
     97 H97        23.0028   24.7234   -0.1479 H         1 UNK         0.0788 
     98 H98        21.7867   25.9636   -0.4185 H         1 UNK         0.0788 
     99 H99        24.8291   25.3958    1.3950 H         1 UNK         0.2993 
    100 H100       27.7864   27.1272    2.0440 H         1 UNK         0.0949 
    101 H101       27.6228   26.7284    4.4776 H         1 UNK         0.0767 
    102 H102       26.5624   28.0600    4.0574 H         1 UNK         0.0767 
    103 H103       25.8800   26.4732    4.3613 H         1 UNK         0.0767 
    104 H104       26.9352   24.6560    3.1446 H         1 UNK         0.3013 
    105 H105       31.5958   28.7609   -1.4253 H         1 UNK         0.3121 
    106 H106       30.3668   31.0274   -0.1456 H         1 UNK         0.0774 
    107 H107       33.3154   30.2463   -0.4778 H         1 UNK         0.0815 
    108 H108       32.3743   31.2204   -1.6092 H         1 UNK         0.0815 
    109 H109       32.7246   31.8323   -0.0032 H         1 UNK         0.0815 
    110 H110       30.9648   28.0405    1.1575 H         1 UNK         0.2987 
    111 H111       32.1746   28.3762    3.6287 H         1 UNK         0.0949 
    112 H112       31.5989   26.1794    2.6197 H         1 UNK         0.0806 
    113 H113       30.9430   26.2889    4.2412 H         1 UNK         0.0806 
    114 H114       29.8821   26.4837    2.8548 H         1 UNK         0.0806 
    115 H115       29.0299   29.5530    2.7170 H         1 UNK         0.3010 
    116 H116       27.8093   29.9379    5.2559 H         1 UNK         0.0829 
    117 H117       26.5883   30.2176    3.1003 H         1 UNK         0.0813 
    118 H118       26.4989   31.6970    4.0350 H         1 UNK         0.0813 
    119 H119       27.6055   31.5895    2.6730 H         1 UNK         0.0813 
    120 H120       30.4667   31.6686    3.6782 H         1 UNK         0.3038 
    121 H121       30.4132   33.8938    5.6308 H         1 UNK         0.0769 
    122 H122       32.2141   34.8049    4.2137 H         1 UNK         0.0811 
    123 H123       30.8586   34.3440    3.1985 H         1 UNK         0.0811 
    124 H124       32.2917   33.3192    3.2787 H         1 UNK         0.0811 
    125 H125       31.2964   30.7948    5.8836 H         1 UNK         0.3204 
    126 H126       32.4892   29.5736    7.2300 H         1 UNK         0.0748 
    127 H127       34.0377   30.3772    8.9364 H         1 UNK         0.0771 
    128 H128       34.0972   31.9790    8.2286 H         1 UNK         0.0771 
    129 H129       32.6031   31.3918    8.9614 H         1 UNK         0.0771 
    130 H130       34.1138   28.2127    6.7568 H         1 UNK         0.2980 
    131 H131       35.7088   28.6450    4.4145 H         1 UNK         0.0545 
    132 H132       39.0215   29.2712    5.5564 H         1 UNK         0.3459 
    133 H133       38.0300   28.7842    4.2071 H         1 UNK         0.3459 
    134 H134       36.6138   26.3419    4.9690 H         1 UNK         0.0616 
    135 H135       35.7014   26.3572    6.4549 H         1 UNK         0.0616 
    136 H136       35.7092   25.8077    2.6725 H         1 UNK         0.0634 
    137 H137       35.6371   24.3672    3.6645 H         1 UNK         0.0634 
@<TRIPOS>BOND
     1    1    2 1    
     2    1   72 1    
     3    1   73 1    
     4    1   74 1    
     5    2    3 2    
     6    2    4 am   BACKBONE|DICT|INTERRES
     7    4    5 1    
     8    4   75 1    
     9    5    6 1    
    10    5   35 1    
    11    5   76 1    
    12    6    7 1    
    13    6   77 1    
    14    6   78 1    
    15    7    8 1    
    16    8    9 1    
    17    8   79 1    
    18    8   80 1    
    19    9   10 ar   
    20    9   14 ar   
    21   10   11 ar   
    22   10   81 1    
    23   11   12 ar   
    24   11   71 1    
    25   12   13 ar   
    26   12   82 1    
    27   13   14 ar   
    28   13   15 1    
    29   14   83 1    
    30   15   16 1    
    31   15   84 1    
    32   15   85 1    
    33   16   17 1    
    34   17   18 1    
    35   17   86 1    
    36   17   87 1    
    37   18   19 1    
    38   18   37 1    
    39   18   88 1    
    40   19   20 am   BACKBONE|DICT|INTERRES
    41   19   89 1    
    42   20   21 2    
    43   20   22 1    
    44   22   23 1    
    45   22   24 1    
    46   22   90 1    
    47   23   91 1    
    48   23   92 1    
    49   23   93 1    
    50   24   25 am   BACKBONE|DICT|INTERRES
    51   24   94 1    
    52   25   26 2    
    53   25   27 1    
    54   27   28 1    
    55   27   29 1    
    56   27   95 1    
    57   28   96 1    
    58   28   97 1    
    59   28   98 1    
    60   29   30 am   BACKBONE|DICT|INTERRES
    61   29   99 1    
    62   30   31 2    
    63   30   32 1    
    64   32   33 1    
    65   32   34 1    
    66   32  100 1    
    67   33  101 1    
    68   33  102 1    
    69   33  103 1    
    70   34   35 am   BACKBONE|DICT|INTERRES
    71   34  104 1    
    72   35   36 2    
    73   37   38 2    
    74   37   39 am   BACKBONE|DICT|INTERRES
    75   39   40 1    
    76   39  105 1    
    77   40   41 1    
    78   40   42 1    
    79   40  106 1    
    80   41  107 1    
    81   41  108 1    
    82   41  109 1    
    83   42   43 2    
    84   42   44 am   BACKBONE|DICT|INTERRES
    85   44   45 1    
    86   44  110 1    
    87   45   46 1    
    88   45   47 1    
    89   45  111 1    
    90   46  112 1    
    91   46  113 1    
    92   46  114 1    
    93   47   48 2    
    94   47   49 am   BACKBONE|DICT|INTERRES
    95   49   50 1    
    96   49  115 1    
    97   50   51 1    
    98   50   52 1    
    99   50  116 1    
   100   51  117 1    
   101   51  118 1    
   102   51  119 1    
   103   52   53 2    
   104   52   54 am   BACKBONE|DICT|INTERRES
   105   54   55 1    
   106   54  120 1    
   107   55   56 1    
   108   55   57 1    
   109   55  121 1    
   110   56  122 1    
   111   56  123 1    
   112   56  124 1    
   113   57   58 2    
   114   57   59 am   BACKBONE|DICT|INTERRES
   115   59   60 1    
   116   59  125 1    
   117   60   61 1    
   118   60   62 1    
   119   60  126 1    
   120   61  127 1    
   121   61  128 1    
   122   61  129 1    
   123   62   63 2    
   124   62   64 am   BACKBONE|DICT|INTERRES
   125   64   65 1    
   126   64  130 1    
   127   65   66 1    
   128   65   69 1    
   129   65  131 1    
   130   66   67 am   BACKBONE|DICT|INTERRES
   131   66   68 2    
   132   67  132 1    
   133   67  133 1    
   134   69   70 1    
   135   69  134 1    
   136   69  135 1    
   137   70   71 1    
   138   71  136 1    
   139   71  137 1    
@<TRIPOS>SUBSTRUCTURE
     1 UNK         1 GROUP             0       ****    0 ROOT    
