@<TRIPOS>MOLECULE
3R136
137   139    1
SMALL
USER_CHARGES


@<TRIPOS>ATOM
      1 CA         26.8993   22.9071   -4.4977 C.3       0 UNK        -0.1979 
      2 C          27.0846   23.5173   -3.1177 C.2       0 UNK         0.4864 
      3 O          26.0974   23.8800   -2.4738 O.2       0 UNK        -0.5359 
      4 N          28.3387   23.6193   -2.6474 N.am      1 UNK        -0.4318 
      5 CA         28.7222   24.2185   -1.3604 C.3       1 UNK         0.0824 
      6 C6         30.2602   24.2377   -1.1607 C.3       12 UNK        -0.0944 
      7 S7         30.7925   25.4378    0.1100 S.3       12 UNK        -0.2672 
      8 C8         31.0961   24.3394    1.5352 C.3       12 UNK         0.0333 
      9 C9         30.9119   25.0987    2.8388 C.ar      12 UNK        -0.0807 
     10 C10        31.9887   25.7665    3.4263 C.ar      12 UNK        -0.0894 
     11 C11        31.8006   26.5349    4.5785 C.ar      12 UNK        -0.0804 
     12 C12        30.5214   26.6379    5.1362 C.ar      12 UNK        -0.0824 
     13 C13        29.4405   25.9473    4.5782 C.ar      12 UNK        -0.0762 
     14 C14        29.6532   25.1562    3.4443 C.ar      12 UNK        -0.0782 
     15 C15        28.0584   26.0517    5.2226 C.3       12 UNK         0.0230 
     16 S16        26.6862   26.2837    4.0355 S.3       12 UNK        -0.2608 
     17 C17        27.1856   27.8042    3.1576 C.3       12 UNK        -0.0989 
     18 CA         27.6567   27.4877    1.7132 C.3       5 UNK         0.0716 
     19 N          26.6025   26.9328    0.8506 N.am      5 UNK        -0.4135 
     20 C          25.5761   27.6051    0.3090 C.2       4 UNK         0.5031 
     21 O          25.3003   28.7747    0.5794 O.2       4 UNK        -0.5229 
     22 CA         24.7504   26.8875   -0.7709 C.3       4 UNK         0.0329 
     23 CB         25.3452   27.1769   -2.1599 C.3       4 UNK        -0.2001 
     24 N          24.6400   25.4380   -0.5966 N.am      4 UNK        -0.4303 
     25 C          23.7937   24.8470    0.2588 C.2       3 UNK         0.5044 
     26 O          23.1113   25.4599    1.0805 O.2       3 UNK        -0.5152 
     27 CA         23.6516   23.3204    0.1564 C.3       3 UNK         0.0319 
     28 CB         22.8049   22.9398   -1.0701 C.3       3 UNK        -0.2001 
     29 N          24.9577   22.6720    0.0589 N.am      3 UNK        -0.4354 
     30 C          25.5654   22.0287    1.0661 C.2       2 UNK         0.4964 
     31 O          25.0463   21.8260    2.1645 O.2       2 UNK        -0.5047 
     32 CA         27.0031   21.5249    0.8221 C.3       2 UNK         0.0288 
     33 CB         26.9929   20.0343    0.4457 C.3       2 UNK        -0.2113 
     34 N          27.7461   22.2714   -0.1992 N.am      2 UNK        -0.4145 
     35 C          28.0010   23.5871   -0.1513 C.2       1 UNK         0.5006 
     36 O          27.6393   24.3149    0.7708 O.2       1 UNK        -0.5103 
     37 C          28.4060   28.6533    1.0332 C.2       5 UNK         0.5055 
     38 O          28.6672   29.6812    1.6597 O.2       5 UNK        -0.5220 
     39 N          28.7350   28.4592   -0.2531 N.am      6 UNK        -0.4450 
     40 CA         29.3374   29.4479   -1.1514 C.3       6 UNK         0.0367 
     41 CB         29.4197   28.8484   -2.5647 C.3       6 UNK        -0.1929 
     42 C          30.7159   29.9679   -0.7078 C.2       6 UNK         0.5070 
     43 O          31.0701   31.0944   -1.0559 O.2       6 UNK        -0.5237 
     44 N          31.4642   29.1552    0.0515 N.am      7 UNK        -0.4739 
     45 CA         32.7568   29.5315    0.6314 C.3       7 UNK         0.0276 
     46 CB         33.4884   28.2625    1.0898 C.3       7 UNK        -0.1927 
     47 C          32.6276   30.5420    1.7891 C.2       7 UNK         0.5013 
     48 O          33.5747   31.2926    2.0288 O.2       7 UNK        -0.5193 
     49 N          31.4629   30.5515    2.4606 N.am      8 UNK        -0.4253 
     50 CA         31.0080   31.4893    3.4938 C.3       8 UNK         0.0242 
     51 CB         30.4017   32.7355    2.8115 C.3       8 UNK        -0.2000 
     52 C          32.0785   31.8213    4.5517 C.2       8 UNK         0.4948 
     53 O          32.3941   30.9715    5.3875 O.2       8 UNK        -0.5275 
     54 N          32.6433   33.0350    4.4729 N.am      9 UNK        -0.4246 
     55 CA         33.6754   33.5871    5.3562 C.3       9 UNK         0.0261 
     56 CB         33.9692   35.0353    4.9298 C.3       9 UNK        -0.1959 
     57 C          34.9829   32.7750    5.4406 C.2       9 UNK         0.5033 
     58 O          35.7641   33.0124    6.3632 O.2       9 UNK        -0.5390 
     59 N          35.1987   31.8248    4.5176 N.am      10 UNK        -0.4215 
     60 CA         36.2901   30.8491    4.5682 C.3       10 UNK         0.0240 
     61 CB         36.2967   30.0217    3.2753 C.3       10 UNK        -0.1982 
     62 C          36.2306   29.9090    5.7879 C.2       10 UNK         0.4970 
     63 O          37.2834   29.4129    6.1926 O.2       10 UNK        -0.4916 
     64 N          35.0350   29.6795    6.3529 N.am      11 UNK        -0.4279 
     65 CA         34.8525   28.8716    7.5692 C.3       11 UNK         0.1003 
     66 C          33.6708   29.3075    8.4809 C.2       11 UNK         0.5709 
     67 N          32.7486   30.1561    8.0423 N.am      11 UNK        -0.7358 
     68 O          33.6073   28.8881    9.6343 O.2       11 UNK        -0.4999 
     69 C69        34.9285   27.3393    7.2911 C.3       12 UNK        -0.0954 
     70 S70        33.3728   26.5006    6.8333 S.3       12 UNK        -0.2268 
     71 C71        32.9759   27.2515    5.2261 C.3       12 UNK         0.0203 
     72 H72        26.2729   22.0180   -4.4323 H         1 UNK         0.0888 
     73 H73        26.4089   23.6216   -5.1581 H         1 UNK         0.0888 
     74 H74        27.8491   22.6224   -4.9497 H         1 UNK         0.0888 
     75 H75        29.1026   23.2940   -3.2234 H         1 UNK         0.3017 
     76 H76        28.3824   25.2545   -1.4143 H         1 UNK         0.0873 
     77 H77        30.7471   24.5379   -2.0900 H         1 UNK         0.0745 
     78 H78        30.6475   23.2426   -0.9329 H         1 UNK         0.0745 
     79 H79        30.4159   23.4872    1.5118 H         1 UNK         0.0705 
     80 H80        32.1050   23.9296    1.4676 H         1 UNK         0.0705 
     81 H81        32.9697   25.6970    2.9766 H         1 UNK         0.1334 
     82 H82        30.3777   27.2412    6.0225 H         1 UNK         0.1417 
     83 H83        28.8230   24.6204    3.0052 H         1 UNK         0.1562 
     84 H84        28.0317   26.8742    5.9391 H         1 UNK         0.0748 
     85 H85        27.8732   25.1415    5.7942 H         1 UNK         0.0748 
     86 H86        27.9759   28.2930    3.7305 H         1 UNK         0.0940 
     87 H87        26.3468   28.5018    3.1453 H         1 UNK         0.0940 
     88 H88        28.4088   26.7057    1.7753 H         1 UNK         0.0703 
     89 H89        26.7186   25.9461    0.6351 H         1 UNK         0.3081 
     90 H90        23.7441   27.3118   -0.7450 H         1 UNK         0.0719 
     91 H91        25.4197   28.2505   -2.3394 H         1 UNK         0.0809 
     92 H92        26.3458   26.7572   -2.2680 H         1 UNK         0.0809 
     93 H93        24.7226   26.7594   -2.9514 H         1 UNK         0.0809 
     94 H94        25.1516   24.8608   -1.2618 H         1 UNK         0.2990 
     95 H95        23.1201   22.9767    1.0464 H         1 UNK         0.0690 
     96 H96        22.6383   21.8635   -1.1148 H         1 UNK         0.0788 
     97 H97        23.2810   23.2427   -2.0038 H         1 UNK         0.0788 
     98 H98        21.8251   23.4181   -1.0319 H         1 UNK         0.0788 
     99 H99        25.4687   22.8198   -0.8042 H         1 UNK         0.2993 
    100 H100       27.5434   21.6386    1.7645 H         1 UNK         0.0949 
    101 H101       26.4898   19.8625   -0.5069 H         1 UNK         0.0767 
    102 H102       28.0050   19.6361    0.3696 H         1 UNK         0.0767 
    103 H103       26.4713   19.4442    1.2008 H         1 UNK         0.0767 
    104 H104       28.0609   21.7509   -1.0051 H         1 UNK         0.3013 
    105 H105       28.5007   27.5701   -0.6666 H         1 UNK         0.3121 
    106 H106       28.6654   30.3082   -1.1819 H         1 UNK         0.0774 
    107 H107       30.0485   27.9572   -2.5887 H         1 UNK         0.0815 
    108 H108       28.4332   28.5761   -2.9406 H         1 UNK         0.0815 
    109 H109       29.8445   29.5655   -3.2687 H         1 UNK         0.0815 
    110 H110       31.1097   28.2340    0.2692 H         1 UNK         0.2987 
    111 H111       33.3531   30.0032   -0.1530 H         1 UNK         0.0949 
    112 H112       33.4732   27.4877    0.3228 H         1 UNK         0.0806 
    113 H113       34.5347   28.4752    1.3054 H         1 UNK         0.0806 
    114 H114       33.0413   27.8528    1.9935 H         1 UNK         0.0806 
    115 H115       30.7484   29.9045    2.1486 H         1 UNK         0.3010 
    116 H116       30.2033   30.9850    4.0311 H         1 UNK         0.0829 
    117 H117       31.1181   33.2409    2.1626 H         1 UNK         0.0813 
    118 H118       30.0391   33.4569    3.5452 H         1 UNK         0.0813 
    119 H119       29.5473   32.4571    2.1934 H         1 UNK         0.0813 
    120 H120       32.3382   33.6357    3.7210 H         1 UNK         0.3038 
    121 H121       33.2552   33.6063    6.3637 H         1 UNK         0.0769 
    122 H122       33.0721   35.6532    4.9721 H         1 UNK         0.0811 
    123 H123       34.3650   35.0833    3.9145 H         1 UNK         0.0811 
    124 H124       34.7066   35.4964    5.5886 H         1 UNK         0.0811 
    125 H125       34.5239   31.7137    3.7651 H         1 UNK         0.3204 
    126 H126       37.2276   31.4059    4.6256 H         1 UNK         0.0748 
    127 H127       35.3956   29.4141    3.1973 H         1 UNK         0.0771 
    128 H128       36.3558   30.6571    2.3913 H         1 UNK         0.0771 
    129 H129       37.1511   29.3440    3.2474 H         1 UNK         0.0771 
    130 H130       34.2082   30.1290    5.9770 H         1 UNK         0.2980 
    131 H131       35.7177   29.1007    8.1952 H         1 UNK         0.0545 
    132 H132       32.7104   30.4765    7.0783 H         1 UNK         0.3459 
    133 H133       32.0114   30.4239    8.6739 H         1 UNK         0.3459 
    134 H134       35.6775   27.1177    6.5296 H         1 UNK         0.0616 
    135 H135       35.2872   26.8411    8.1931 H         1 UNK         0.0616 
    136 H136       33.8567   27.2209    4.5827 H         1 UNK         0.0634 
    137 H137       32.7227   28.3023    5.3657 H         1 UNK         0.0634 
@<TRIPOS>BOND
     1    1    2 1    
     2    1   72 1    
     3    1   73 1    
     4    1   74 1    
     5    2    3 2    
     6    2    4 am   BACKBONE|DICT|INTERRES
     7    4    5 1    
     8    4   75 1    
     9    5    6 1    
    10    5   35 1    
    11    5   76 1    
    12    6    7 1    
    13    6   77 1    
    14    6   78 1    
    15    7    8 1    
    16    8    9 1    
    17    8   79 1    
    18    8   80 1    
    19    9   10 ar   
    20    9   14 ar   
    21   10   11 ar   
    22   10   81 1    
    23   11   12 ar   
    24   11   71 1    
    25   12   13 ar   
    26   12   82 1    
    27   13   14 ar   
    28   13   15 1    
    29   14   83 1    
    30   15   16 1    
    31   15   84 1    
    32   15   85 1    
    33   16   17 1    
    34   17   18 1    
    35   17   86 1    
    36   17   87 1    
    37   18   19 1    
    38   18   37 1    
    39   18   88 1    
    40   19   20 am   BACKBONE|DICT|INTERRES
    41   19   89 1    
    42   20   21 2    
    43   20   22 1    
    44   22   23 1    
    45   22   24 1    
    46   22   90 1    
    47   23   91 1    
    48   23   92 1    
    49   23   93 1    
    50   24   25 am   BACKBONE|DICT|INTERRES
    51   24   94 1    
    52   25   26 2    
    53   25   27 1    
    54   27   28 1    
    55   27   29 1    
    56   27   95 1    
    57   28   96 1    
    58   28   97 1    
    59   28   98 1    
    60   29   30 am   BACKBONE|DICT|INTERRES
    61   29   99 1    
    62   30   31 2    
    63   30   32 1    
    64   32   33 1    
    65   32   34 1    
    66   32  100 1    
    67   33  101 1    
    68   33  102 1    
    69   33  103 1    
    70   34   35 am   BACKBONE|DICT|INTERRES
    71   34  104 1    
    72   35   36 2    
    73   37   38 2    
    74   37   39 am   BACKBONE|DICT|INTERRES
    75   39   40 1    
    76   39  105 1    
    77   40   41 1    
    78   40   42 1    
    79   40  106 1    
    80   41  107 1    
    81   41  108 1    
    82   41  109 1    
    83   42   43 2    
    84   42   44 am   BACKBONE|DICT|INTERRES
    85   44   45 1    
    86   44  110 1    
    87   45   46 1    
    88   45   47 1    
    89   45  111 1    
    90   46  112 1    
    91   46  113 1    
    92   46  114 1    
    93   47   48 2    
    94   47   49 am   BACKBONE|DICT|INTERRES
    95   49   50 1    
    96   49  115 1    
    97   50   51 1    
    98   50   52 1    
    99   50  116 1    
   100   51  117 1    
   101   51  118 1    
   102   51  119 1    
   103   52   53 2    
   104   52   54 am   BACKBONE|DICT|INTERRES
   105   54   55 1    
   106   54  120 1    
   107   55   56 1    
   108   55   57 1    
   109   55  121 1    
   110   56  122 1    
   111   56  123 1    
   112   56  124 1    
   113   57   58 2    
   114   57   59 am   BACKBONE|DICT|INTERRES
   115   59   60 1    
   116   59  125 1    
   117   60   61 1    
   118   60   62 1    
   119   60  126 1    
   120   61  127 1    
   121   61  128 1    
   122   61  129 1    
   123   62   63 2    
   124   62   64 am   BACKBONE|DICT|INTERRES
   125   64   65 1    
   126   64  130 1    
   127   65   66 1    
   128   65   69 1    
   129   65  131 1    
   130   66   67 am   BACKBONE|DICT|INTERRES
   131   66   68 2    
   132   67  132 1    
   133   67  133 1    
   134   69   70 1    
   135   69  134 1    
   136   69  135 1    
   137   70   71 1    
   138   71  136 1    
   139   71  137 1    
@<TRIPOS>SUBSTRUCTURE
     1 UNK         1 GROUP             0       ****    0 ROOT    
