@<TRIPOS>MOLECULE
3R136
137   139    1
SMALL
USER_CHARGES


@<TRIPOS>ATOM
      1 CA         32.2625   21.0745    7.3315 C.3       0 UNK        -0.1979 
      2 C          31.4517   21.1140    6.0445 C.2       0 UNK         0.4864 
      3 O          30.3896   20.4936    5.9712 O.2       0 UNK        -0.5359 
      4 N          31.9474   21.8324    5.0288 N.am      1 UNK        -0.4318 
      5 CA         31.2628   22.0599    3.7535 C.3       1 UNK         0.0824 
      6 C6         32.2646   22.5470    2.6772 C.3       12 UNK        -0.0944 
      7 S7         31.6357   22.3643    0.9719 S.3       12 UNK        -0.2672 
      8 C8         32.4090   23.7919    0.1382 C.3       12 UNK         0.0333 
      9 C9         31.4756   24.9931    0.0303 C.ar      12 UNK        -0.0807 
     10 C10        30.9370   25.5822    1.1784 C.ar      12 UNK        -0.0894 
     11 C11        30.0875   26.6857    1.0812 C.ar      12 UNK        -0.0804 
     12 C12        29.7890   27.2170   -0.1740 C.ar      12 UNK        -0.0824 
     13 C13        30.3405   26.6584   -1.3308 C.ar      12 UNK        -0.0762 
     14 C14        31.1737   25.5395   -1.2235 C.ar      12 UNK        -0.0782 
     15 C15        30.0363   27.2727   -2.6890 C.3       12 UNK         0.0230 
     16 S16        28.4469   26.6653   -3.3236 S.3       12 UNK        -0.2608 
     17 C17        27.8274   28.0882   -4.2889 C.3       12 UNK        -0.0989 
     18 CA         26.9517   29.0891   -3.4800 C.3       5 UNK         0.0716 
     19 N          26.0463   28.4035   -2.5511 N.am      5 UNK        -0.4135 
     20 C          24.9906   28.9402   -1.9278 C.2       4 UNK         0.5031 
     21 O          24.6699   30.1246   -2.0342 O.2       4 UNK        -0.5229 
     22 CA         24.1204   28.0033   -1.0648 C.3       4 UNK         0.0329 
     23 CB         22.7141   27.8657   -1.6738 C.3       4 UNK        -0.2001 
     24 N          24.6788   26.6585   -0.8667 N.am      4 UNK        -0.4303 
     25 C          25.6572   26.3620   -0.0026 C.2       3 UNK         0.5044 
     26 O          26.2459   27.2031    0.6793 O.2       3 UNK        -0.5152 
     27 CA         26.0415   24.8813    0.1216 C.3       3 UNK         0.0319 
     28 CB         26.9465   24.4411   -1.0447 C.3       3 UNK        -0.2001 
     29 N          26.7237   24.7039    1.3995 N.am      3 UNK        -0.4354 
     30 C          27.0876   23.5471    1.9592 C.2       2 UNK         0.4964 
     31 O          26.8905   22.4366    1.4601 O.2       2 UNK        -0.5047 
     32 CA         27.7773   23.6399    3.3213 C.3       2 UNK         0.0288 
     33 CB         26.8410   23.1969    4.4594 C.3       2 UNK        -0.2113 
     34 N          28.9648   22.7940    3.2909 N.am      2 UNK        -0.4145 
     35 C          30.0965   23.0497    3.9536 C.2       1 UNK         0.5006 
     36 O          30.2501   24.0293    4.6883 O.2       1 UNK        -0.5103 
     37 C          27.8073   30.2098   -2.8481 C.2       5 UNK         0.5055 
     38 O          28.2912   31.0653   -3.5918 O.2       5 UNK        -0.5220 
     39 N          28.0008   30.2015   -1.5234 N.am      6 UNK        -0.4450 
     40 CA         28.8029   31.1786   -0.7880 C.3       6 UNK         0.0367 
     41 CB         30.3101   30.9109   -0.9967 C.3       6 UNK        -0.1929 
     42 C          28.4386   31.1230    0.6996 C.2       6 UNK         0.5070 
     43 O          27.7185   30.2180    1.1235 O.2       6 UNK        -0.5237 
     44 N          28.9705   32.0824    1.4620 N.am      7 UNK        -0.4739 
     45 CA         28.8863   32.1566    2.9208 C.3       7 UNK         0.0276 
     46 CB         27.7136   33.0677    3.3324 C.3       7 UNK        -0.1927 
     47 C          30.2454   32.6224    3.4685 C.2       7 UNK         0.5013 
     48 O          30.3138   33.5758    4.2468 O.2       7 UNK        -0.5193 
     49 N          31.3123   31.9662    2.9958 N.am      8 UNK        -0.4253 
     50 CA         32.7031   32.2164    3.3747 C.3       8 UNK         0.0242 
     51 CB         33.6121   31.5832    2.3059 C.3       8 UNK        -0.2000 
     52 C          33.0298   31.6423    4.7633 C.2       8 UNK         0.4948 
     53 O          32.2827   30.8132    5.2833 O.2       8 UNK        -0.5275 
     54 N          34.1876   32.0321    5.3144 N.am      9 UNK        -0.4246 
     55 CA         34.7113   31.5408    6.5983 C.3       9 UNK         0.0261 
     56 CB         35.9942   32.3126    6.9489 C.3       9 UNK        -0.1959 
     57 C          34.9682   30.0192    6.6459 C.2       9 UNK         0.5033 
     58 O          34.9899   29.4456    7.7355 O.2       9 UNK        -0.5390 
     59 N          35.1469   29.3956    5.4733 N.am      10 UNK        -0.4215 
     60 CA         35.2837   27.9495    5.2976 C.3       10 UNK         0.0240 
     61 CB         35.9191   27.6766    3.9234 C.3       10 UNK        -0.1982 
     62 C          33.9576   27.1746    5.4329 C.2       10 UNK         0.4970 
     63 O          34.0096   25.9576    5.6172 O.2       10 UNK        -0.4916 
     64 N          32.8086   27.8556    5.3120 N.am      11 UNK        -0.4279 
     65 CA         31.4751   27.2452    5.4046 C.3       11 UNK         0.1003 
     66 C          31.1371   26.7990    6.8513 C.2       11 UNK         0.5709 
     67 N          30.5605   25.6171    7.0151 N.am      11 UNK        -0.7358 
     68 O          31.3542   27.5297    7.8163 O.2       11 UNK        -0.4999 
     69 C69        30.3720   28.1778    4.8409 C.3       12 UNK        -0.0954 
     70 S70        30.6163   28.5220    3.0657 S.3       12 UNK        -0.2268 
     71 C71        29.4930   27.2954    2.3369 C.3       12 UNK         0.0203 
     72 H72        31.6735   21.4728    8.1573 H         1 UNK         0.0888 
     73 H73        32.5367   20.0476    7.5716 H         1 UNK         0.0888 
     74 H74        33.1778   21.6612    7.2550 H         1 UNK         0.0888 
     75 H75        32.8037   22.3507    5.1633 H         1 UNK         0.3017 
     76 H76        30.8517   21.1004    3.4306 H         1 UNK         0.0873 
     77 H77        32.5762   23.5747    2.8715 H         1 UNK         0.0745 
     78 H78        33.1776   21.9515    2.7303 H         1 UNK         0.0745 
     79 H79        33.3228   24.0853    0.6565 H         1 UNK         0.0705 
     80 H80        32.7205   23.4667   -0.8555 H         1 UNK         0.0705 
     81 H81        31.1721   25.1847    2.1541 H         1 UNK         0.1334 
     82 H82        29.1261   28.0665   -0.2449 H         1 UNK         0.1417 
     83 H83        31.5931   25.1003   -2.1186 H         1 UNK         0.1562 
     84 H84        30.8234   27.0368   -3.4067 H         1 UNK         0.0748 
     85 H85        30.0222   28.3584   -2.6000 H         1 UNK         0.0748 
     86 H86        27.2200   27.6716   -5.0941 H         1 UNK         0.0940 
     87 H87        28.6584   28.5844   -4.7954 H         1 UNK         0.0940 
     88 H88        26.3113   29.6009   -4.2020 H         1 UNK         0.0703 
     89 H89        26.2485   27.4264   -2.3975 H         1 UNK         0.3081 
     90 H90        24.0185   28.4796   -0.0870 H         1 UNK         0.0719 
     91 H91        22.2407   28.8414   -1.7937 H         1 UNK         0.0809 
     92 H92        22.0610   27.2701   -1.0356 H         1 UNK         0.0809 
     93 H93        22.7441   27.3959   -2.6577 H         1 UNK         0.0809 
     94 H94        24.2524   25.9105   -1.3959 H         1 UNK         0.2990 
     95 H95        25.1274   24.2843    0.1260 H         1 UNK         0.0690 
     96 H96        27.1213   23.3656   -1.0348 H         1 UNK         0.0788 
     97 H97        27.9190   24.9317   -0.9977 H         1 UNK         0.0788 
     98 H98        26.4987   24.6786   -2.0101 H         1 UNK         0.0788 
     99 H99        26.9061   25.5829    1.8700 H         1 UNK         0.2993 
    100 H100       28.0684   24.6759    3.4968 H         1 UNK         0.0949 
    101 H101       26.5267   22.1591    4.3411 H         1 UNK         0.0767 
    102 H102       27.3279   23.2903    5.4305 H         1 UNK         0.0767 
    103 H103       25.9407   23.8121    4.4864 H         1 UNK         0.0767 
    104 H104       28.9139   22.0065    2.6571 H         1 UNK         0.3013 
    105 H105       27.5175   29.5293   -0.9383 H         1 UNK         0.3121 
    106 H106       28.5561   32.1776   -1.1541 H         1 UNK         0.0774 
    107 H107       30.9189   31.6752   -0.5129 H         1 UNK         0.0815 
    108 H108       30.6132   29.9495   -0.5823 H         1 UNK         0.0815 
    109 H109       30.5796   30.9187   -2.0526 H         1 UNK         0.0815 
    110 H110       29.5571   32.7819    1.0263 H         1 UNK         0.2987 
    111 H111       28.7112   31.1600    3.3338 H         1 UNK         0.0949 
    112 H112       27.8434   34.0842    2.9593 H         1 UNK         0.0806 
    113 H113       26.7660   32.6882    2.9500 H         1 UNK         0.0806 
    114 H114       27.6248   33.1244    4.4180 H         1 UNK         0.0806 
    115 H115       31.1460   31.1580    2.4135 H         1 UNK         0.3010 
    116 H116       32.8721   33.2952    3.3969 H         1 UNK         0.0829 
    117 H117       33.3929   31.9808    1.3146 H         1 UNK         0.0813 
    118 H118       34.6648   31.7878    2.5044 H         1 UNK         0.0813 
    119 H119       33.4911   30.4994    2.2639 H         1 UNK         0.0813 
    120 H120       34.7552   32.7107    4.8261 H         1 UNK         0.3038 
    121 H121       33.9614   31.7604    7.3613 H         1 UNK         0.0769 
    122 H122       36.7767   32.1551    6.2054 H         1 UNK         0.0811 
    123 H123       36.3920   31.9914    7.9127 H         1 UNK         0.0811 
    124 H124       35.8073   33.3842    7.0204 H         1 UNK         0.0811 
    125 H125       35.1280   29.9551    4.6341 H         1 UNK         0.3204 
    126 H126       35.9603   27.5725    6.0676 H         1 UNK         0.0748 
    127 H127       36.8929   28.1583    3.8326 H         1 UNK         0.0771 
    128 H128       36.0740   26.6076    3.7697 H         1 UNK         0.0771 
    129 H129       35.2882   28.0340    3.1082 H         1 UNK         0.0771 
    130 H130       32.8188   28.8654    5.2183 H         1 UNK         0.2980 
    131 H131       31.4945   26.3521    4.7773 H         1 UNK         0.0545 
    132 H132       30.3928   25.0139    6.2114 H         1 UNK         0.3459 
    133 H133       30.3138   25.3079    7.9410 H         1 UNK         0.3459 
    134 H134       29.3827   27.7403    4.9866 H         1 UNK         0.0616 
    135 H135       30.3529   29.1248    5.3810 H         1 UNK         0.0616 
    136 H136       28.5320   27.7660    2.1255 H         1 UNK         0.0634 
    137 H137       29.2991   26.5009    3.0558 H         1 UNK         0.0634 
@<TRIPOS>BOND
     1    1    2 1    
     2    1   72 1    
     3    1   73 1    
     4    1   74 1    
     5    2    3 2    
     6    2    4 am   BACKBONE|DICT|INTERRES
     7    4    5 1    
     8    4   75 1    
     9    5    6 1    
    10    5   35 1    
    11    5   76 1    
    12    6    7 1    
    13    6   77 1    
    14    6   78 1    
    15    7    8 1    
    16    8    9 1    
    17    8   79 1    
    18    8   80 1    
    19    9   10 ar   
    20    9   14 ar   
    21   10   11 ar   
    22   10   81 1    
    23   11   12 ar   
    24   11   71 1    
    25   12   13 ar   
    26   12   82 1    
    27   13   14 ar   
    28   13   15 1    
    29   14   83 1    
    30   15   16 1    
    31   15   84 1    
    32   15   85 1    
    33   16   17 1    
    34   17   18 1    
    35   17   86 1    
    36   17   87 1    
    37   18   19 1    
    38   18   37 1    
    39   18   88 1    
    40   19   20 am   BACKBONE|DICT|INTERRES
    41   19   89 1    
    42   20   21 2    
    43   20   22 1    
    44   22   23 1    
    45   22   24 1    
    46   22   90 1    
    47   23   91 1    
    48   23   92 1    
    49   23   93 1    
    50   24   25 am   BACKBONE|DICT|INTERRES
    51   24   94 1    
    52   25   26 2    
    53   25   27 1    
    54   27   28 1    
    55   27   29 1    
    56   27   95 1    
    57   28   96 1    
    58   28   97 1    
    59   28   98 1    
    60   29   30 am   BACKBONE|DICT|INTERRES
    61   29   99 1    
    62   30   31 2    
    63   30   32 1    
    64   32   33 1    
    65   32   34 1    
    66   32  100 1    
    67   33  101 1    
    68   33  102 1    
    69   33  103 1    
    70   34   35 am   BACKBONE|DICT|INTERRES
    71   34  104 1    
    72   35   36 2    
    73   37   38 2    
    74   37   39 am   BACKBONE|DICT|INTERRES
    75   39   40 1    
    76   39  105 1    
    77   40   41 1    
    78   40   42 1    
    79   40  106 1    
    80   41  107 1    
    81   41  108 1    
    82   41  109 1    
    83   42   43 2    
    84   42   44 am   BACKBONE|DICT|INTERRES
    85   44   45 1    
    86   44  110 1    
    87   45   46 1    
    88   45   47 1    
    89   45  111 1    
    90   46  112 1    
    91   46  113 1    
    92   46  114 1    
    93   47   48 2    
    94   47   49 am   BACKBONE|DICT|INTERRES
    95   49   50 1    
    96   49  115 1    
    97   50   51 1    
    98   50   52 1    
    99   50  116 1    
   100   51  117 1    
   101   51  118 1    
   102   51  119 1    
   103   52   53 2    
   104   52   54 am   BACKBONE|DICT|INTERRES
   105   54   55 1    
   106   54  120 1    
   107   55   56 1    
   108   55   57 1    
   109   55  121 1    
   110   56  122 1    
   111   56  123 1    
   112   56  124 1    
   113   57   58 2    
   114   57   59 am   BACKBONE|DICT|INTERRES
   115   59   60 1    
   116   59  125 1    
   117   60   61 1    
   118   60   62 1    
   119   60  126 1    
   120   61  127 1    
   121   61  128 1    
   122   61  129 1    
   123   62   63 2    
   124   62   64 am   BACKBONE|DICT|INTERRES
   125   64   65 1    
   126   64  130 1    
   127   65   66 1    
   128   65   69 1    
   129   65  131 1    
   130   66   67 am   BACKBONE|DICT|INTERRES
   131   66   68 2    
   132   67  132 1    
   133   67  133 1    
   134   69   70 1    
   135   69  134 1    
   136   69  135 1    
   137   70   71 1    
   138   71  136 1    
   139   71  137 1    
@<TRIPOS>SUBSTRUCTURE
     1 UNK         1 GROUP             0       ****    0 ROOT    
