@<TRIPOS>MOLECULE
3R136
137   139    1
SMALL
USER_CHARGES


@<TRIPOS>ATOM
      1 CA         27.5349   18.2008   -1.0863 C.3       0 UNK        -0.1979 
      2 C          27.7012   19.6357   -1.5645 C.2       0 UNK         0.4864 
      3 O          27.5498   19.9045   -2.7573 O.2       0 UNK        -0.5359 
      4 N          28.0175   20.5581   -0.6460 N.am      1 UNK        -0.4318 
      5 CA         28.1539   21.9909   -0.9141 C.3       1 UNK         0.0824 
      6 C6         28.9210   22.6994    0.2296 C.3       12 UNK        -0.0944 
      7 S7         29.4353   24.4047   -0.1892 S.3       12 UNK        -0.2672 
      8 C8         31.2579   24.2765   -0.1706 C.3       12 UNK         0.0333 
      9 C9         31.8510   24.5645    1.2055 C.ar      12 UNK        -0.0807 
     10 C10        32.7596   25.6147    1.3787 C.ar      12 UNK        -0.0894 
     11 C11        33.2984   25.8915    2.6403 C.ar      12 UNK        -0.0804 
     12 C12        32.9052   25.1233    3.7411 C.ar      12 UNK        -0.0824 
     13 C13        32.0017   24.0689    3.5812 C.ar      12 UNK        -0.0762 
     14 C14        31.5049   23.7789    2.3085 C.ar      12 UNK        -0.0782 
     15 C15        31.5357   23.2533    4.7802 C.3       12 UNK         0.0230 
     16 S16        29.7206   23.3016    4.9734 S.3       12 UNK        -0.2608 
     17 C17        29.4336   25.0728    5.3107 C.3       12 UNK        -0.0989 
     18 CA         29.0888   25.9001    4.0368 C.3       5 UNK         0.0716 
     19 N          27.9597   25.3787    3.2551 N.am      5 UNK        -0.4135 
     20 C          26.6890   25.2713    3.6662 C.2       4 UNK         0.5031 
     21 O          26.3033   25.5806    4.7953 O.2       4 UNK        -0.5229 
     22 CA         25.6800   24.7500    2.6202 C.3       4 UNK         0.0329 
     23 CB         24.2140   24.9606    3.0537 C.3       4 UNK        -0.2001 
     24 N          25.8835   25.2894    1.2666 N.am      4 UNK        -0.4303 
     25 C          25.9410   26.5844    0.9089 C.2       3 UNK         0.5044 
     26 O          25.9265   27.5110    1.7178 O.2       3 UNK        -0.5152 
     27 CA         26.0695   26.9278   -0.5883 C.3       3 UNK         0.0319 
     28 CB         27.3347   27.7593   -0.8465 C.3       3 UNK        -0.2001 
     29 N          26.0976   25.7497   -1.4544 N.am      3 UNK        -0.4354 
     30 C          25.0159   25.1107   -1.9213 C.2       2 UNK         0.4964 
     31 O          23.8592   25.4843   -1.7268 O.2       2 UNK        -0.5047 
     32 CA         25.2690   23.8167   -2.7174 C.3       2 UNK         0.0288 
     33 CB         25.2799   24.1061   -4.2272 C.3       2 UNK        -0.2113 
     34 N          26.5145   23.1338   -2.3455 N.am      2 UNK        -0.4145 
     35 C          26.7614   22.6094   -1.1366 C.2       1 UNK         0.5006 
     36 O          25.9551   22.6313   -0.2033 O.2       1 UNK        -0.5103 
     37 C          28.9872   27.4154    4.3265 C.2       5 UNK         0.5055 
     38 O          29.5966   27.8888    5.2850 O.2       5 UNK        -0.5220 
     39 N          28.2712   28.1636    3.4770 N.am      6 UNK        -0.4450 
     40 CA         28.2303   29.6270    3.4742 C.3       6 UNK         0.0367 
     41 CB         26.8207   30.1012    3.8737 C.3       6 UNK        -0.1929 
     42 C          28.6725   30.1589    2.0995 C.2       6 UNK         0.5070 
     43 O          28.1313   31.1562    1.6210 O.2       6 UNK        -0.5237 
     44 N          29.6463   29.4769    1.4757 N.am      7 UNK        -0.4739 
     45 CA         30.1985   29.8160    0.1582 C.3       7 UNK         0.0276 
     46 CB         31.0440   28.6374   -0.3548 C.3       7 UNK        -0.1927 
     47 C          31.0289   31.1126    0.1482 C.2       7 UNK         0.5013 
     48 O          31.1663   31.7312   -0.9081 O.2       7 UNK        -0.5193 
     49 N          31.5624   31.4982    1.3113 N.am      8 UNK        -0.4253 
     50 CA         32.3514   32.7003    1.5452 C.3       8 UNK         0.0242 
     51 CB         33.7994   32.4766    1.0657 C.3       8 UNK        -0.2000 
     52 C          32.3165   33.0101    3.0447 C.2       8 UNK         0.4948 
     53 O          31.9552   32.1401    3.8437 O.2       8 UNK        -0.5275 
     54 N          32.7607   34.2192    3.4133 N.am      9 UNK        -0.4246 
     55 CA         32.9173   34.6613    4.8060 C.3       9 UNK         0.0261 
     56 CB         33.2971   36.1508    4.8291 C.3       9 UNK        -0.1959 
     57 C          33.9385   33.8305    5.6086 C.2       9 UNK         0.5033 
     58 O          33.8138   33.7371    6.8300 O.2       9 UNK        -0.5390 
     59 N          34.9080   33.2240    4.9082 N.am      10 UNK        -0.4215 
     60 CA         35.8569   32.2530    5.4550 C.3       10 UNK         0.0240 
     61 CB         37.0068   32.0530    4.4539 C.3       10 UNK        -0.1982 
     62 C          35.2065   30.8995    5.7993 C.2       10 UNK         0.4970 
     63 O          35.7005   30.2158    6.6968 O.2       10 UNK        -0.4916 
     64 N          34.1306   30.5330    5.0891 N.am      11 UNK        -0.4279 
     65 CA         33.3362   29.3256    5.3524 C.3       11 UNK         0.1003 
     66 C          32.3500   29.5512    6.5271 C.2       11 UNK         0.5709 
     67 N          31.6229   30.6635    6.5359 N.am      11 UNK        -0.7358 
     68 O          32.2658   28.7325    7.4393 O.2       11 UNK        -0.4999 
     69 C69        32.5811   28.8119    4.0969 C.3       12 UNK        -0.0954 
     70 S70        33.6272   28.6634    2.6124 S.3       12 UNK        -0.2268 
     71 C71        34.3319   26.9978    2.8087 C.3       12 UNK         0.0203 
     72 H72        27.7080   18.1051   -0.0145 H         1 UNK         0.0888 
     73 H73        26.5257   17.8492   -1.2994 H         1 UNK         0.0888 
     74 H74        28.2393   17.5492   -1.6027 H         1 UNK         0.0888 
     75 H75        28.0970   20.2832    0.3226 H         1 UNK         0.3017 
     76 H76        28.7420   22.1009   -1.8284 H         1 UNK         0.0873 
     77 H77        29.8084   22.1099    0.4596 H         1 UNK         0.0745 
     78 H78        28.3328   22.7230    1.1494 H         1 UNK         0.0745 
     79 H79        31.5748   23.2901   -0.5116 H         1 UNK         0.0705 
     80 H80        31.6477   24.9860   -0.9021 H         1 UNK         0.0705 
     81 H81        33.0569   26.2175    0.5314 H         1 UNK         0.1334 
     82 H82        33.3053   25.3448    4.7212 H         1 UNK         0.1417 
     83 H83        30.8121   22.9595    2.1993 H         1 UNK         0.1562 
     84 H84        32.0044   23.6033    5.7013 H         1 UNK         0.0748 
     85 H85        31.8501   22.2172    4.6480 H         1 UNK         0.0748 
     86 H86        30.3228   25.4734    5.8014 H         1 UNK         0.0940 
     87 H87        28.6308   25.1540    6.0451 H         1 UNK         0.0940 
     88 H88        29.9422   25.8296    3.3646 H         1 UNK         0.0703 
     89 H89        28.1779   25.0963    2.3101 H         1 UNK         0.3081 
     90 H90        25.8507   23.6747    2.5478 H         1 UNK         0.0719 
     91 H91        23.5211   24.5492    2.3197 H         1 UNK         0.0809 
     92 H92        23.9802   26.0184    3.1803 H         1 UNK         0.0809 
     93 H93        24.0094   24.4649    4.0034 H         1 UNK         0.0809 
     94 H94        25.9169   24.5893    0.5339 H         1 UNK         0.2990 
     95 H95        25.2056   27.5419   -0.8510 H         1 UNK         0.0690 
     96 H96        27.4359   28.0185   -1.9004 H         1 UNK         0.0788 
     97 H97        28.2328   27.2235   -0.5421 H         1 UNK         0.0788 
     98 H98        27.3030   28.6949   -0.2874 H         1 UNK         0.0788 
     99 H99        27.0088   25.3695   -1.6679 H         1 UNK         0.2993 
    100 H100       24.4406   23.1377   -2.5029 H         1 UNK         0.0949 
    101 H101       24.3532   24.5909   -4.5383 H         1 UNK         0.0767 
    102 H102       26.1026   24.7657   -4.5069 H         1 UNK         0.0767 
    103 H103       25.3725   23.1874   -4.8069 H         1 UNK         0.0767 
    104 H104       27.2202   23.0554   -3.0643 H         1 UNK         0.3013 
    105 H105       27.7192   27.7139    2.7535 H         1 UNK         0.3121 
    106 H106       28.9401   30.0338    4.1978 H         1 UNK         0.0774 
    107 H107       26.7792   31.1885    3.9481 H         1 UNK         0.0815 
    108 H108       26.0705   29.7941    3.1445 H         1 UNK         0.0815 
    109 H109       26.5291   29.6990    4.8439 H         1 UNK         0.0815 
    110 H110       30.0421   28.6723    1.9392 H         1 UNK         0.2987 
    111 H111       29.3638   29.9654   -0.5296 H         1 UNK         0.0949 
    112 H112       31.9330   28.4843    0.2553 H         1 UNK         0.0806 
    113 H113       30.4836   27.7035   -0.3621 H         1 UNK         0.0806 
    114 H114       31.3820   28.8190   -1.3758 H         1 UNK         0.0806 
    115 H115       31.3699   30.9623    2.1481 H         1 UNK         0.3010 
    116 H116       31.9011   33.5365    1.0061 H         1 UNK         0.0829 
    117 H117       33.8342   32.2472    0.0005 H         1 UNK         0.0813 
    118 H118       34.4126   33.3652    1.2188 H         1 UNK         0.0813 
    119 H119       34.2761   31.6513    1.5967 H         1 UNK         0.0813 
    120 H120       33.0351   34.8771    2.6970 H         1 UNK         0.3038 
    121 H121       31.9496   34.5466    5.2992 H         1 UNK         0.0769 
    122 H122       33.3942   36.5124    5.8539 H         1 UNK         0.0811 
    123 H123       32.5366   36.7627    4.3437 H         1 UNK         0.0811 
    124 H124       34.2484   36.3343    4.3279 H         1 UNK         0.0811 
    125 H125       34.9493   33.3907    3.9139 H         1 UNK         0.3204 
    126 H126       36.2721   32.6643    6.3777 H         1 UNK         0.0748 
    127 H127       37.7481   31.3554    4.8465 H         1 UNK         0.0771 
    128 H128       36.6517   31.6498    3.5044 H         1 UNK         0.0771 
    129 H129       37.5239   32.9908    4.2498 H         1 UNK         0.0771 
    130 H130       33.7321   31.1729    4.4159 H         1 UNK         0.2980 
    131 H131       34.0218   28.5313    5.6543 H         1 UNK         0.0545 
    132 H132       31.6841   31.3130    5.7614 H         1 UNK         0.3459 
    133 H133       30.9811   30.8316    7.2932 H         1 UNK         0.3459 
    134 H134       31.7570   29.4804    3.8451 H         1 UNK         0.0616 
    135 H135       32.1230   27.8449    4.3053 H         1 UNK         0.0616 
    136 H136       35.1169   26.8645    2.0633 H         1 UNK         0.0634 
    137 H137       34.8226   26.9307    3.7808 H         1 UNK         0.0634 
@<TRIPOS>BOND
     1    1    2 1    
     2    1   72 1    
     3    1   73 1    
     4    1   74 1    
     5    2    3 2    
     6    2    4 am   BACKBONE|DICT|INTERRES
     7    4    5 1    
     8    4   75 1    
     9    5    6 1    
    10    5   35 1    
    11    5   76 1    
    12    6    7 1    
    13    6   77 1    
    14    6   78 1    
    15    7    8 1    
    16    8    9 1    
    17    8   79 1    
    18    8   80 1    
    19    9   10 ar   
    20    9   14 ar   
    21   10   11 ar   
    22   10   81 1    
    23   11   12 ar   
    24   11   71 1    
    25   12   13 ar   
    26   12   82 1    
    27   13   14 ar   
    28   13   15 1    
    29   14   83 1    
    30   15   16 1    
    31   15   84 1    
    32   15   85 1    
    33   16   17 1    
    34   17   18 1    
    35   17   86 1    
    36   17   87 1    
    37   18   19 1    
    38   18   37 1    
    39   18   88 1    
    40   19   20 am   BACKBONE|DICT|INTERRES
    41   19   89 1    
    42   20   21 2    
    43   20   22 1    
    44   22   23 1    
    45   22   24 1    
    46   22   90 1    
    47   23   91 1    
    48   23   92 1    
    49   23   93 1    
    50   24   25 am   BACKBONE|DICT|INTERRES
    51   24   94 1    
    52   25   26 2    
    53   25   27 1    
    54   27   28 1    
    55   27   29 1    
    56   27   95 1    
    57   28   96 1    
    58   28   97 1    
    59   28   98 1    
    60   29   30 am   BACKBONE|DICT|INTERRES
    61   29   99 1    
    62   30   31 2    
    63   30   32 1    
    64   32   33 1    
    65   32   34 1    
    66   32  100 1    
    67   33  101 1    
    68   33  102 1    
    69   33  103 1    
    70   34   35 am   BACKBONE|DICT|INTERRES
    71   34  104 1    
    72   35   36 2    
    73   37   38 2    
    74   37   39 am   BACKBONE|DICT|INTERRES
    75   39   40 1    
    76   39  105 1    
    77   40   41 1    
    78   40   42 1    
    79   40  106 1    
    80   41  107 1    
    81   41  108 1    
    82   41  109 1    
    83   42   43 2    
    84   42   44 am   BACKBONE|DICT|INTERRES
    85   44   45 1    
    86   44  110 1    
    87   45   46 1    
    88   45   47 1    
    89   45  111 1    
    90   46  112 1    
    91   46  113 1    
    92   46  114 1    
    93   47   48 2    
    94   47   49 am   BACKBONE|DICT|INTERRES
    95   49   50 1    
    96   49  115 1    
    97   50   51 1    
    98   50   52 1    
    99   50  116 1    
   100   51  117 1    
   101   51  118 1    
   102   51  119 1    
   103   52   53 2    
   104   52   54 am   BACKBONE|DICT|INTERRES
   105   54   55 1    
   106   54  120 1    
   107   55   56 1    
   108   55   57 1    
   109   55  121 1    
   110   56  122 1    
   111   56  123 1    
   112   56  124 1    
   113   57   58 2    
   114   57   59 am   BACKBONE|DICT|INTERRES
   115   59   60 1    
   116   59  125 1    
   117   60   61 1    
   118   60   62 1    
   119   60  126 1    
   120   61  127 1    
   121   61  128 1    
   122   61  129 1    
   123   62   63 2    
   124   62   64 am   BACKBONE|DICT|INTERRES
   125   64   65 1    
   126   64  130 1    
   127   65   66 1    
   128   65   69 1    
   129   65  131 1    
   130   66   67 am   BACKBONE|DICT|INTERRES
   131   66   68 2    
   132   67  132 1    
   133   67  133 1    
   134   69   70 1    
   135   69  134 1    
   136   69  135 1    
   137   70   71 1    
   138   71  136 1    
   139   71  137 1    
@<TRIPOS>SUBSTRUCTURE
     1 UNK         1 GROUP             0       ****    0 ROOT    
