@<TRIPOS>MOLECULE
3R136
137   139    1
SMALL
USER_CHARGES


@<TRIPOS>ATOM
      1 CA         28.5193   17.4504    0.3389 C.3       0 UNK        -0.1979 
      2 C          28.8315   18.5486   -0.6666 C.2       0 UNK         0.4864 
      3 O          28.5652   18.3817   -1.8575 O.2       0 UNK        -0.5359 
      4 N          29.3926   19.6712   -0.1968 N.am      1 UNK        -0.4318 
      5 CA         29.7545   20.8395   -1.0106 C.3       1 UNK         0.0824 
      6 C6         30.8165   21.7267   -0.3134 C.3       12 UNK        -0.0944 
      7 S7         30.4040   22.2044    1.4026 S.3       12 UNK        -0.2672 
      8 C8         29.8709   23.9321    1.2047 C.3       12 UNK         0.0333 
      9 C9         30.3009   24.7690    2.3989 C.ar      12 UNK        -0.0807 
     10 C10        31.5098   25.4694    2.3599 C.ar      12 UNK        -0.0894 
     11 C11        31.9119   26.2522    3.4455 C.ar      12 UNK        -0.0804 
     12 C12        31.1018   26.3214    4.5826 C.ar      12 UNK        -0.0824 
     13 C13        29.8986   25.6113    4.6410 C.ar      12 UNK        -0.0762 
     14 C14        29.4987   24.8430    3.5419 C.ar      12 UNK        -0.0782 
     15 C15        29.0455   25.6499    5.9013 C.3       12 UNK         0.0230 
     16 S16        27.5105   26.5994    5.6689 S.3       12 UNK        -0.2608 
     17 C17        28.1284   28.3140    5.5510 C.3       12 UNK        -0.0989 
     18 CA         28.2683   28.8062    4.0893 C.3       5 UNK         0.0716 
     19 N          27.0581   28.5676    3.2944 N.am      5 UNK        -0.4135 
     20 C          26.9577   28.7688    1.9758 C.2       4 UNK         0.5031 
     21 O          27.8291   29.3083    1.2906 O.2       4 UNK        -0.5229 
     22 CA         25.6529   28.3144    1.3070 C.3       4 UNK         0.0329 
     23 CB         24.7731   29.5264    0.9600 C.3       4 UNK        -0.2001 
     24 N          25.9431   27.5555    0.0903 N.am      4 UNK        -0.4303 
     25 C          26.5091   26.3415    0.0804 C.2       3 UNK         0.5044 
     26 O          26.7626   25.6922    1.0981 O.2       3 UNK        -0.5152 
     27 CA         26.8866   25.7851   -1.3042 C.3       3 UNK         0.0319 
     28 CB         28.2748   26.3007   -1.7201 C.3       3 UNK        -0.2001 
     29 N          26.8908   24.3205   -1.3493 N.am      3 UNK        -0.4354 
     30 C          25.8286   23.5299   -1.1532 C.2       2 UNK         0.4964 
     31 O          24.6917   23.9614   -0.9537 O.2       2 UNK        -0.5047 
     32 CA         26.0353   22.0012   -1.1910 C.3       2 UNK         0.0288 
     33 CB         25.5714   21.4252   -2.5441 C.3       2 UNK        -0.2113 
     34 N          27.3769   21.4977   -0.8470 N.am      2 UNK        -0.4145 
     35 C          28.5393   21.6593   -1.5002 C.2       1 UNK         0.5006 
     36 O          28.6829   22.4155   -2.4619 O.2       1 UNK        -0.5103 
     37 C          28.7343   30.2748    4.0555 C.2       5 UNK         0.5055 
     38 O          29.9391   30.5231    4.0383 O.2       5 UNK        -0.5220 
     39 N          27.7808   31.2175    4.0185 N.am      6 UNK        -0.4450 
     40 CA         28.0422   32.6535    3.8962 C.3       6 UNK         0.0367 
     41 CB         26.7512   33.4405    4.1724 C.3       6 UNK        -0.1929 
     42 C          28.6278   33.0337    2.5260 C.2       6 UNK         0.5070 
     43 O          29.5662   33.8277    2.4704 O.2       6 UNK        -0.5237 
     44 N          28.0944   32.4357    1.4505 N.am      7 UNK        -0.4739 
     45 CA         28.5806   32.6137    0.0774 C.3       7 UNK         0.0276 
     46 CB         27.5479   32.0563   -0.9155 C.3       7 UNK        -0.1927 
     47 C          29.9536   31.9570   -0.1386 C.2       7 UNK         0.5013 
     48 O          30.7937   32.5161   -0.8434 O.2       7 UNK        -0.5193 
     49 N          30.1663   30.8068    0.5136 N.am      8 UNK        -0.4253 
     50 CA         31.4343   30.0776    0.5653 C.3       8 UNK         0.0242 
     51 CB         31.1340   28.6124    0.9122 C.3       8 UNK        -0.2000 
     52 C          32.4693   30.6876    1.5379 C.2       8 UNK         0.4948 
     53 O          33.5722   30.1498    1.6413 O.2       8 UNK        -0.5275 
     54 N          32.1128   31.7906    2.2157 N.am      9 UNK        -0.4246 
     55 CA         32.9350   32.6016    3.1205 C.3       9 UNK         0.0261 
     56 CB         34.1041   33.2609    2.3573 C.3       9 UNK        -0.1959 
     57 C          33.3876   31.8596    4.3930 C.2       9 UNK         0.5033 
     58 O          34.5244   32.0411    4.8355 O.2       9 UNK        -0.5390 
     59 N          32.4870   31.0521    4.9717 N.am      10 UNK        -0.4215 
     60 CA         32.5739   30.3133    6.2419 C.3       10 UNK         0.0240 
     61 CB         32.7352   31.2737    7.4361 C.3       10 UNK        -0.1982 
     62 C          33.6220   29.1864    6.2972 C.2       10 UNK         0.4970 
     63 O          33.3239   28.1439    6.8783 O.2       10 UNK        -0.4916 
     64 N          34.8003   29.4131    5.7030 N.am      11 UNK        -0.4279 
     65 CA         35.9459   28.5006    5.5282 C.3       11 UNK         0.1003 
     66 C          36.5128   27.8090    6.8077 C.2       11 UNK         0.5709 
     67 N          36.2257   28.3013    8.0065 N.am      11 UNK        -0.7358 
     68 O          37.2686   26.8439    6.7167 O.2       11 UNK        -0.4999 
     69 C69        35.8002   27.5658    4.2899 C.3       12 UNK        -0.0954 
     70 S70        34.5056   26.2851    4.4088 S.3       12 UNK        -0.2268 
     71 C71        33.2094   27.0416    3.3835 C.3       12 UNK         0.0203 
     72 H72        29.0549   16.5385    0.0763 H         1 UNK         0.0888 
     73 H73        28.8057   17.7316    1.3522 H         1 UNK         0.0888 
     74 H74        27.4518   17.2316    0.3364 H         1 UNK         0.0888 
     75 H75        29.5991   19.7560    0.7895 H         1 UNK         0.3017 
     76 H76        30.2217   20.4557   -1.9206 H         1 UNK         0.0873 
     77 H77        31.0470   22.6080   -0.9146 H         1 UNK         0.0745 
     78 H78        31.7545   21.1715   -0.2647 H         1 UNK         0.0745 
     79 H79        28.7870   23.9598    1.0888 H         1 UNK         0.0705 
     80 H80        30.2879   24.3603    0.2929 H         1 UNK         0.0705 
     81 H81        32.1350   25.4099    1.4795 H         1 UNK         0.1334 
     82 H82        31.4185   26.9197    5.4260 H         1 UNK         0.1417 
     83 H83        28.5645   24.2987    3.5780 H         1 UNK         0.1562 
     84 H84        29.6055   26.0617    6.7425 H         1 UNK         0.0748 
     85 H85        28.7846   24.6290    6.1836 H         1 UNK         0.0748 
     86 H86        29.0847   28.3897    6.0728 H         1 UNK         0.0940 
     87 H87        27.4344   28.9503    6.1041 H         1 UNK         0.0940 
     88 H88        29.0599   28.2202    3.6187 H         1 UNK         0.0703 
     89 H89        26.3050   28.0994    3.7777 H         1 UNK         0.3081 
     90 H90        25.1008   27.6671    1.9920 H         1 UNK         0.0719 
     91 H91        23.8301   29.2152    0.5100 H         1 UNK         0.0809 
     92 H92        24.5288   30.1015    1.8541 H         1 UNK         0.0809 
     93 H93        25.2691   30.2027    0.2630 H         1 UNK         0.0809 
     94 H94        25.8078   28.0380   -0.7858 H         1 UNK         0.2990 
     95 H95        26.1500   26.1343   -2.0307 H         1 UNK         0.0690 
     96 H96        28.5514   25.9452   -2.7129 H         1 UNK         0.0788 
     97 H97        29.0484   25.9823   -1.0210 H         1 UNK         0.0788 
     98 H98        28.2965   27.3912   -1.7489 H         1 UNK         0.0788 
     99 H99        27.7653   23.8655   -1.5876 H         1 UNK         0.2993 
    100 H100       25.3731   21.5970   -0.4234 H         1 UNK         0.0949 
    101 H101       25.6237   20.3362   -2.5500 H         1 UNK         0.0767 
    102 H102       24.5366   21.7009   -2.7523 H         1 UNK         0.0767 
    103 H103       26.1774   21.7945   -3.3721 H         1 UNK         0.0767 
    104 H104       27.4036   20.8917   -0.0390 H         1 UNK         0.3013 
    105 H105       26.8146   30.9259    4.0422 H         1 UNK         0.3121 
    106 H106       28.7767   32.9278    4.6570 H         1 UNK         0.0774 
    107 H107       26.9286   34.5147    4.1034 H         1 UNK         0.0815 
    108 H108       25.9636   33.1945    3.4589 H         1 UNK         0.0815 
    109 H109       26.3716   33.2411    5.1746 H         1 UNK         0.0815 
    110 H110       27.3661   31.7499    1.5882 H         1 UNK         0.2987 
    111 H111       28.6915   33.6846   -0.1083 H         1 UNK         0.0949 
    112 H112       27.4122   30.9805   -0.7994 H         1 UNK         0.0806 
    113 H113       26.5764   32.5345   -0.7904 H         1 UNK         0.0806 
    114 H114       27.8653   32.2328   -1.9441 H         1 UNK         0.0806 
    115 H115       29.3807   30.3847    1.0038 H         1 UNK         0.3010 
    116 H116       31.8806   30.1026   -0.4309 H         1 UNK         0.0829 
    117 H117       30.3774   28.1892    0.2510 H         1 UNK         0.0813 
    118 H118       32.0292   28.0005    0.8076 H         1 UNK         0.0813 
    119 H119       30.7762   28.5097    1.9368 H         1 UNK         0.0813 
    120 H120       31.1677   32.1273    2.0842 H         1 UNK         0.3038 
    121 H121       32.2833   33.4049    3.4674 H         1 UNK         0.0769 
    122 H122       34.6304   33.9768    2.9898 H         1 UNK         0.0811 
    123 H123       33.7495   33.8041    1.4814 H         1 UNK         0.0811 
    124 H124       34.8358   32.5246    2.0231 H         1 UNK         0.0811 
    125 H125       31.5906   30.9378    4.4940 H         1 UNK         0.3204 
    126 H126       31.6026   29.8272    6.3484 H         1 UNK         0.0748 
    127 H127       32.6996   30.7298    8.3810 H         1 UNK         0.0771 
    128 H128       33.6852   31.8082    7.4055 H         1 UNK         0.0771 
    129 H129       31.9350   32.0137    7.4588 H         1 UNK         0.0771 
    130 H130       34.9217   30.3437    5.3078 H         1 UNK         0.2980 
    131 H131       36.7544   29.1832    5.2649 H         1 UNK         0.0545 
    132 H132       35.6027   29.0870    8.0977 H         1 UNK         0.3459 
    133 H133       36.6091   27.8593    8.8269 H         1 UNK         0.3459 
    134 H134       35.6162   28.1726    3.4017 H         1 UNK         0.0616 
    135 H135       36.7462   27.0591    4.0922 H         1 UNK         0.0616 
    136 H136       33.5738   27.1086    2.3577 H         1 UNK         0.0634 
    137 H137       33.0231   28.0656    3.7080 H         1 UNK         0.0634 
@<TRIPOS>BOND
     1    1    2 1    
     2    1   72 1    
     3    1   73 1    
     4    1   74 1    
     5    2    3 2    
     6    2    4 am   BACKBONE|DICT|INTERRES
     7    4    5 1    
     8    4   75 1    
     9    5    6 1    
    10    5   35 1    
    11    5   76 1    
    12    6    7 1    
    13    6   77 1    
    14    6   78 1    
    15    7    8 1    
    16    8    9 1    
    17    8   79 1    
    18    8   80 1    
    19    9   10 ar   
    20    9   14 ar   
    21   10   11 ar   
    22   10   81 1    
    23   11   12 ar   
    24   11   71 1    
    25   12   13 ar   
    26   12   82 1    
    27   13   14 ar   
    28   13   15 1    
    29   14   83 1    
    30   15   16 1    
    31   15   84 1    
    32   15   85 1    
    33   16   17 1    
    34   17   18 1    
    35   17   86 1    
    36   17   87 1    
    37   18   19 1    
    38   18   37 1    
    39   18   88 1    
    40   19   20 am   BACKBONE|DICT|INTERRES
    41   19   89 1    
    42   20   21 2    
    43   20   22 1    
    44   22   23 1    
    45   22   24 1    
    46   22   90 1    
    47   23   91 1    
    48   23   92 1    
    49   23   93 1    
    50   24   25 am   BACKBONE|DICT|INTERRES
    51   24   94 1    
    52   25   26 2    
    53   25   27 1    
    54   27   28 1    
    55   27   29 1    
    56   27   95 1    
    57   28   96 1    
    58   28   97 1    
    59   28   98 1    
    60   29   30 am   BACKBONE|DICT|INTERRES
    61   29   99 1    
    62   30   31 2    
    63   30   32 1    
    64   32   33 1    
    65   32   34 1    
    66   32  100 1    
    67   33  101 1    
    68   33  102 1    
    69   33  103 1    
    70   34   35 am   BACKBONE|DICT|INTERRES
    71   34  104 1    
    72   35   36 2    
    73   37   38 2    
    74   37   39 am   BACKBONE|DICT|INTERRES
    75   39   40 1    
    76   39  105 1    
    77   40   41 1    
    78   40   42 1    
    79   40  106 1    
    80   41  107 1    
    81   41  108 1    
    82   41  109 1    
    83   42   43 2    
    84   42   44 am   BACKBONE|DICT|INTERRES
    85   44   45 1    
    86   44  110 1    
    87   45   46 1    
    88   45   47 1    
    89   45  111 1    
    90   46  112 1    
    91   46  113 1    
    92   46  114 1    
    93   47   48 2    
    94   47   49 am   BACKBONE|DICT|INTERRES
    95   49   50 1    
    96   49  115 1    
    97   50   51 1    
    98   50   52 1    
    99   50  116 1    
   100   51  117 1    
   101   51  118 1    
   102   51  119 1    
   103   52   53 2    
   104   52   54 am   BACKBONE|DICT|INTERRES
   105   54   55 1    
   106   54  120 1    
   107   55   56 1    
   108   55   57 1    
   109   55  121 1    
   110   56  122 1    
   111   56  123 1    
   112   56  124 1    
   113   57   58 2    
   114   57   59 am   BACKBONE|DICT|INTERRES
   115   59   60 1    
   116   59  125 1    
   117   60   61 1    
   118   60   62 1    
   119   60  126 1    
   120   61  127 1    
   121   61  128 1    
   122   61  129 1    
   123   62   63 2    
   124   62   64 am   BACKBONE|DICT|INTERRES
   125   64   65 1    
   126   64  130 1    
   127   65   66 1    
   128   65   69 1    
   129   65  131 1    
   130   66   67 am   BACKBONE|DICT|INTERRES
   131   66   68 2    
   132   67  132 1    
   133   67  133 1    
   134   69   70 1    
   135   69  134 1    
   136   69  135 1    
   137   70   71 1    
   138   71  136 1    
   139   71  137 1    
@<TRIPOS>SUBSTRUCTURE
     1 UNK         1 GROUP             0       ****    0 ROOT    
