@<TRIPOS>MOLECULE
3R136
137   139    1
SMALL
USER_CHARGES


@<TRIPOS>ATOM
      1 CA         26.8128   27.4934    5.1788 C.3       0 UNK        -0.1979 
      2 C          27.0818   26.1715    4.4813 C.2       0 UNK         0.4864 
      3 O          26.5766   25.1347    4.9159 O.2       0 UNK        -0.5359 
      4 N          27.8524   26.1945    3.3873 N.am      1 UNK        -0.4318 
      5 CA         28.2187   25.0183    2.5915 C.3       1 UNK         0.0824 
      6 C6         29.5977   25.1987    1.9106 C.3       12 UNK        -0.0944 
      7 S7         30.9064   25.2851    3.1815 S.3       12 UNK        -0.2672 
      8 C8         32.2730   24.3515    2.4333 C.3       12 UNK         0.0333 
      9 C9         33.0661   25.2195    1.4701 C.ar      12 UNK        -0.0807 
     10 C10        34.0612   26.0733    1.9560 C.ar      12 UNK        -0.0894 
     11 C11        34.8036   26.8701    1.0793 C.ar      12 UNK        -0.0804 
     12 C12        34.5314   26.8211   -0.2913 C.ar      12 UNK        -0.0824 
     13 C13        33.5332   25.9755   -0.7868 C.ar      12 UNK        -0.0762 
     14 C14        32.8129   25.1668    0.0975 C.ar      12 UNK        -0.0782 
     15 C15        33.2442   25.9305   -2.2794 C.3       12 UNK         0.0230 
     16 S16        32.0703   27.2300   -2.7729 S.3       12 UNK        -0.2608 
     17 C17        30.4839   26.5096   -2.2330 C.3       12 UNK        -0.0989 
     18 CA         29.3205   27.5360   -2.2783 C.3       5 UNK         0.0716 
     19 N          28.0217   26.8780   -2.2446 N.am      5 UNK        -0.4135 
     20 C          27.3656   26.3997   -3.3068 C.2       4 UNK         0.5031 
     21 O          27.7942   26.4539   -4.4605 O.2       4 UNK        -0.5229 
     22 CA         26.0052   25.7352   -3.0459 C.3       4 UNK         0.0329 
     23 CB         26.1410   24.2046   -3.1097 C.3       4 UNK        -0.2001 
     24 N          25.4580   26.0974   -1.7386 N.am      4 UNK        -0.4303 
     25 C          24.5777   27.0821   -1.5072 C.2       3 UNK         0.5044 
     26 O          24.1439   27.8249   -2.3891 O.2       3 UNK        -0.5152 
     27 CA         24.1093   27.2813   -0.0461 C.3       3 UNK         0.0319 
     28 CB         22.6194   27.6726    0.0482 C.3       3 UNK        -0.2001 
     29 N          24.4157   26.1402    0.8295 N.am      3 UNK        -0.4354 
     30 C          23.9803   24.8751    0.7082 C.2       2 UNK         0.4964 
     31 O          23.0876   24.5320   -0.0677 O.2       2 UNK        -0.5047 
     32 CA         24.6949   23.7988    1.5528 C.3       2 UNK         0.0288 
     33 CB         24.9403   22.5106    0.7380 C.3       2 UNK        -0.2113 
     34 N          25.9494   24.2345    2.1873 N.am      2 UNK        -0.4145 
     35 C          27.0765   24.6867    1.6117 C.2       1 UNK         0.5006 
     36 O          27.2017   24.8952    0.4013 O.2       1 UNK        -0.5103 
     37 C          29.3159   28.6121   -1.1764 C.2       5 UNK         0.5055 
     38 O          28.4759   29.5127   -1.2354 O.2       5 UNK        -0.5220 
     39 N          30.2428   28.5210   -0.2135 N.am      6 UNK        -0.4450 
     40 CA         30.4361   29.4682    0.8852 C.3       6 UNK         0.0367 
     41 CB         31.6356   29.0058    1.7238 C.3       6 UNK        -0.1929 
     42 C          29.1944   29.6490    1.7779 C.2       6 UNK         0.5070 
     43 O          28.5078   28.6748    2.0961 O.2       6 UNK        -0.5237 
     44 N          28.9598   30.9014    2.1918 N.am      7 UNK        -0.4739 
     45 CA         27.8463   31.3190    3.0528 C.3       7 UNK         0.0276 
     46 CB         27.5920   32.8206    2.8378 C.3       7 UNK        -0.1927 
     47 C          28.0655   31.0150    4.5478 C.2       7 UNK         0.5013 
     48 O          27.1387   31.1930    5.3389 O.2       7 UNK        -0.5193 
     49 N          29.2669   30.5531    4.9052 N.am      8 UNK        -0.4253 
     50 CA         29.6389   30.0274    6.2138 C.3       8 UNK         0.0242 
     51 CB         30.6220   30.9996    6.8870 C.3       8 UNK        -0.2000 
     52 C          30.2893   28.6569    5.9915 C.2       8 UNK         0.4948 
     53 O          30.7486   28.3783    4.8836 O.2       8 UNK        -0.5275 
     54 N          30.3345   27.8339    7.0473 N.am      9 UNK        -0.4246 
     55 CA         30.8464   26.4558    7.0187 C.3       9 UNK         0.0261 
     56 CB         30.4768   25.7613    8.3402 C.3       9 UNK        -0.1959 
     57 C          32.3585   26.3188    6.7383 C.2       9 UNK         0.5033 
     58 O          32.8168   25.2106    6.4551 O.2       9 UNK        -0.5390 
     59 N          33.1053   27.4236    6.8264 N.am      10 UNK        -0.4215 
     60 CA         34.5069   27.5400    6.4468 C.3       10 UNK         0.0240 
     61 CB         35.4082   27.2542    7.6604 C.3       10 UNK        -0.1982 
     62 C          34.7248   28.9583    5.9122 C.2       10 UNK         0.4970 
     63 O          34.0677   29.8907    6.3837 O.2       10 UNK        -0.4916 
     64 N          35.6412   29.0921    4.9504 N.am      11 UNK        -0.4279 
     65 CA         36.0308   30.3733    4.3460 C.3       11 UNK         0.1003 
     66 C          37.0349   31.1493    5.2395 C.2       11 UNK         0.5709 
     67 N          37.0325   32.4734    5.1680 N.am      11 UNK        -0.7358 
     68 O          37.8371   30.5658    5.9673 O.2       11 UNK        -0.4999 
     69 C69        36.5901   30.1768    2.9129 C.3       12 UNK        -0.0954 
     70 S70        35.3319   29.4881    1.7865 S.3       12 UNK        -0.2268 
     71 C71        35.9056   27.7720    1.6137 C.3       12 UNK         0.0203 
     72 H72        27.2038   28.3282    4.6012 H         1 UNK         0.0888 
     73 H73        25.7413   27.6437    5.3071 H         1 UNK         0.0888 
     74 H74        27.2820   27.5034    6.1619 H         1 UNK         0.0888 
     75 H75        28.2040   27.0836    3.0327 H         1 UNK         0.3017 
     76 H76        28.3059   24.1562    3.2573 H         1 UNK         0.0873 
     77 H77        29.6232   26.1074    1.3073 H         1 UNK         0.0745 
     78 H78        29.8043   24.3667    1.2354 H         1 UNK         0.0745 
     79 H79        31.8943   23.4559    1.9386 H         1 UNK         0.0705 
     80 H80        32.9300   24.0019    3.2313 H         1 UNK         0.0705 
     81 H81        34.2551   26.1150    3.0192 H         1 UNK         0.1334 
     82 H82        35.0952   27.4447   -0.9718 H         1 UNK         0.1417 
     83 H83        32.0511   24.4986   -0.2801 H         1 UNK         0.1562 
     84 H84        32.8580   24.9525   -2.5711 H         1 UNK         0.0748 
     85 H85        34.1726   26.0671   -2.8361 H         1 UNK         0.0748 
     86 H86        30.5678   26.0537   -1.2470 H         1 UNK         0.0940 
     87 H87        30.2706   25.6850   -2.9155 H         1 UNK         0.0940 
     88 H88        29.3925   28.0863   -3.2194 H         1 UNK         0.0703 
     89 H89        27.5861   26.8107   -1.3353 H         1 UNK         0.3081 
     90 H90        25.3214   26.0528   -3.8360 H         1 UNK         0.0719 
     91 H91        26.5215   23.8854   -4.0810 H         1 UNK         0.0809 
     92 H92        26.8270   23.8282   -2.3493 H         1 UNK         0.0809 
     93 H93        25.1777   23.7157   -2.9622 H         1 UNK         0.0809 
     94 H94        25.7947   25.5553   -0.9493 H         1 UNK         0.2990 
     95 H95        24.6932   28.1183    0.3398 H         1 UNK         0.0690 
     96 H96        22.3096   27.8091    1.0842 H         1 UNK         0.0788 
     97 H97        21.9715   26.9189   -0.4000 H         1 UNK         0.0788 
     98 H98        22.4283   28.6122   -0.4716 H         1 UNK         0.0788 
     99 H99        25.1481   26.3043    1.5055 H         1 UNK         0.2993 
    100 H100       24.0100   23.5548    2.3664 H         1 UNK         0.0949 
    101 H101       25.5721   22.6967   -0.1314 H         1 UNK         0.0767 
    102 H102       25.4222   21.7436    1.3444 H         1 UNK         0.0767 
    103 H103       24.0029   22.0883    0.3738 H         1 UNK         0.0767 
    104 H104       25.9533   24.2052    3.2036 H         1 UNK         0.3013 
    105 H105       30.9058   27.7613   -0.2619 H         1 UNK         0.3121 
    106 H106       30.6840   30.4304    0.4326 H         1 UNK         0.0774 
    107 H107       31.4433   28.0475    2.2071 H         1 UNK         0.0815 
    108 H108       32.5273   28.8930    1.1085 H         1 UNK         0.0815 
    109 H109       31.8719   29.7226    2.5111 H         1 UNK         0.0815 
    110 H110       29.5853   31.6350    1.8889 H         1 UNK         0.2987 
    111 H111       26.9511   30.7733    2.7458 H         1 UNK         0.0949 
    112 H112       27.3683   33.0402    1.7937 H         1 UNK         0.0806 
    113 H113       26.7393   33.1620    3.4267 H         1 UNK         0.0806 
    114 H114       28.4524   33.4227    3.1325 H         1 UNK         0.0806 
    115 H115       29.9281   30.3371    4.1708 H         1 UNK         0.3010 
    116 H116       28.7554   29.8979    6.8429 H         1 UNK         0.0829 
    117 H117       31.5296   31.1292    6.2955 H         1 UNK         0.0813 
    118 H118       30.9225   30.6403    7.8719 H         1 UNK         0.0813 
    119 H119       30.1714   31.9826    7.0250 H         1 UNK         0.0813 
    120 H120       29.9577   28.1525    7.9290 H         1 UNK         0.3038 
    121 H121       30.3316   25.9355    6.2078 H         1 UNK         0.0769 
    122 H122       29.3983   25.7561    8.4993 H         1 UNK         0.0811 
    123 H123       30.9435   26.2496    9.1966 H         1 UNK         0.0811 
    124 H124       30.8052   24.7208    8.3403 H         1 UNK         0.0811 
    125 H125       32.6514   28.3090    7.0121 H         1 UNK         0.3204 
    126 H126       34.7281   26.8274    5.6488 H         1 UNK         0.0748 
    127 H127       35.2122   27.9479    8.4792 H         1 UNK         0.0771 
    128 H128       35.2569   26.2420    8.0359 H         1 UNK         0.0771 
    129 H129       36.4623   27.3487    7.3962 H         1 UNK         0.0771 
    130 H130       36.1755   28.2878    4.6612 H         1 UNK         0.2980 
    131 H131       35.1323   30.9894    4.2649 H         1 UNK         0.0545 
    132 H132       37.6865   32.9951    5.7304 H         1 UNK         0.3459 
    133 H133       36.3880   32.9625    4.5664 H         1 UNK         0.3459 
    134 H134       37.4769   29.5403    2.9210 H         1 UNK         0.0616 
    135 H135       36.9073   31.1332    2.4934 H         1 UNK         0.0616 
    136 H136       36.2523   27.4010    2.5790 H         1 UNK         0.0634 
    137 H137       36.7680   27.7467    0.9460 H         1 UNK         0.0634 
@<TRIPOS>BOND
     1    1    2 1    
     2    1   72 1    
     3    1   73 1    
     4    1   74 1    
     5    2    3 2    
     6    2    4 am   BACKBONE|DICT|INTERRES
     7    4    5 1    
     8    4   75 1    
     9    5    6 1    
    10    5   35 1    
    11    5   76 1    
    12    6    7 1    
    13    6   77 1    
    14    6   78 1    
    15    7    8 1    
    16    8    9 1    
    17    8   79 1    
    18    8   80 1    
    19    9   10 ar   
    20    9   14 ar   
    21   10   11 ar   
    22   10   81 1    
    23   11   12 ar   
    24   11   71 1    
    25   12   13 ar   
    26   12   82 1    
    27   13   14 ar   
    28   13   15 1    
    29   14   83 1    
    30   15   16 1    
    31   15   84 1    
    32   15   85 1    
    33   16   17 1    
    34   17   18 1    
    35   17   86 1    
    36   17   87 1    
    37   18   19 1    
    38   18   37 1    
    39   18   88 1    
    40   19   20 am   BACKBONE|DICT|INTERRES
    41   19   89 1    
    42   20   21 2    
    43   20   22 1    
    44   22   23 1    
    45   22   24 1    
    46   22   90 1    
    47   23   91 1    
    48   23   92 1    
    49   23   93 1    
    50   24   25 am   BACKBONE|DICT|INTERRES
    51   24   94 1    
    52   25   26 2    
    53   25   27 1    
    54   27   28 1    
    55   27   29 1    
    56   27   95 1    
    57   28   96 1    
    58   28   97 1    
    59   28   98 1    
    60   29   30 am   BACKBONE|DICT|INTERRES
    61   29   99 1    
    62   30   31 2    
    63   30   32 1    
    64   32   33 1    
    65   32   34 1    
    66   32  100 1    
    67   33  101 1    
    68   33  102 1    
    69   33  103 1    
    70   34   35 am   BACKBONE|DICT|INTERRES
    71   34  104 1    
    72   35   36 2    
    73   37   38 2    
    74   37   39 am   BACKBONE|DICT|INTERRES
    75   39   40 1    
    76   39  105 1    
    77   40   41 1    
    78   40   42 1    
    79   40  106 1    
    80   41  107 1    
    81   41  108 1    
    82   41  109 1    
    83   42   43 2    
    84   42   44 am   BACKBONE|DICT|INTERRES
    85   44   45 1    
    86   44  110 1    
    87   45   46 1    
    88   45   47 1    
    89   45  111 1    
    90   46  112 1    
    91   46  113 1    
    92   46  114 1    
    93   47   48 2    
    94   47   49 am   BACKBONE|DICT|INTERRES
    95   49   50 1    
    96   49  115 1    
    97   50   51 1    
    98   50   52 1    
    99   50  116 1    
   100   51  117 1    
   101   51  118 1    
   102   51  119 1    
   103   52   53 2    
   104   52   54 am   BACKBONE|DICT|INTERRES
   105   54   55 1    
   106   54  120 1    
   107   55   56 1    
   108   55   57 1    
   109   55  121 1    
   110   56  122 1    
   111   56  123 1    
   112   56  124 1    
   113   57   58 2    
   114   57   59 am   BACKBONE|DICT|INTERRES
   115   59   60 1    
   116   59  125 1    
   117   60   61 1    
   118   60   62 1    
   119   60  126 1    
   120   61  127 1    
   121   61  128 1    
   122   61  129 1    
   123   62   63 2    
   124   62   64 am   BACKBONE|DICT|INTERRES
   125   64   65 1    
   126   64  130 1    
   127   65   66 1    
   128   65   69 1    
   129   65  131 1    
   130   66   67 am   BACKBONE|DICT|INTERRES
   131   66   68 2    
   132   67  132 1    
   133   67  133 1    
   134   69   70 1    
   135   69  134 1    
   136   69  135 1    
   137   70   71 1    
   138   71  136 1    
   139   71  137 1    
@<TRIPOS>SUBSTRUCTURE
     1 UNK         1 GROUP             0       ****    0 ROOT    
