@<TRIPOS>MOLECULE
3R136
137   139    1
SMALL
USER_CHARGES


@<TRIPOS>ATOM
      1 CA         25.5327   20.5273    0.6370 C.3       0 UNK        -0.1979 
      2 C          26.2746   21.5438   -0.2177 C.2       0 UNK         0.4864 
      3 O          26.0498   22.7422   -0.0544 O.2       0 UNK        -0.5359 
      4 N          27.1471   21.0645   -1.1171 N.am      1 UNK        -0.4318 
      5 CA         28.0027   21.8172   -2.0478 C.3       1 UNK         0.0824 
      6 C6         29.4255   22.1112   -1.4877 C.3       12 UNK        -0.0944 
      7 S7         29.5418   23.1858   -0.0126 S.3       12 UNK        -0.2672 
      8 C8         31.3118   22.9562    0.3395 C.3       12 UNK         0.0333 
      9 C9         31.7992   23.7852    1.5187 C.ar      12 UNK        -0.0807 
     10 C10        32.3595   25.0490    1.3075 C.ar      12 UNK        -0.0894 
     11 C11        32.9127   25.7685    2.3718 C.ar      12 UNK        -0.0804 
     12 C12        32.8910   25.2190    3.6577 C.ar      12 UNK        -0.0824 
     13 C13        32.2951   23.9754    3.8888 C.ar      12 UNK        -0.0762 
     14 C14        31.7571   23.2601    2.8137 C.ar      12 UNK        -0.0782 
     15 C15        32.2473   23.3944    5.2953 C.3       12 UNK         0.0230 
     16 S16        30.5487   23.3356    5.9513 S.3       12 UNK        -0.2608 
     17 C17        30.1941   25.0971    6.2860 C.3       12 UNK        -0.0989 
     18 CA         29.5772   25.8490    5.0760 C.3       5 UNK         0.0716 
     19 N          28.4424   25.1332    4.4809 N.am      5 UNK        -0.4135 
     20 C          28.0459   25.2484    3.2076 C.2       4 UNK         0.5031 
     21 O          28.6097   25.9906    2.3975 O.2       4 UNK        -0.5229 
     22 CA         26.8070   24.4337    2.7842 C.3       4 UNK         0.0329 
     23 CB         25.7586   24.2811    3.9092 C.3       4 UNK        -0.2001 
     24 N          26.1796   24.9637    1.5686 N.am      4 UNK        -0.4303 
     25 C          25.6860   26.1957    1.3723 C.2       3 UNK         0.5044 
     26 O          25.6061   27.0531    2.2550 O.2       3 UNK        -0.5152 
     27 CA         25.2418   26.5279   -0.0624 C.3       3 UNK         0.0319 
     28 CB         24.9551   28.0343   -0.2574 C.3       3 UNK        -0.2001 
     29 N          26.2520   26.0611   -1.0167 N.am      3 UNK        -0.4354 
     30 C          26.0785   25.9448   -2.3400 C.2       2 UNK         0.4964 
     31 O          25.0259   26.2059   -2.9240 O.2       2 UNK        -0.5047 
     32 CA         27.2855   25.4506   -3.1545 C.3       2 UNK         0.0288 
     33 CB         28.3847   26.5227   -3.2375 C.3       2 UNK        -0.2113 
     34 N          27.8486   24.2158   -2.6110 N.am      2 UNK        -0.4145 
     35 C          27.2932   23.0042   -2.7421 C.2       1 UNK         0.5006 
     36 O          26.2735   22.7881   -3.4024 O.2       1 UNK        -0.5103 
     37 C          29.2216   27.3195    5.4030 C.2       5 UNK         0.5055 
     38 O          29.5117   27.8004    6.4993 O.2       5 UNK        -0.5220 
     39 N          28.5915   28.0046    4.4442 N.am      6 UNK        -0.4450 
     40 CA         28.1658   29.4005    4.5062 C.3       6 UNK         0.0367 
     41 CB         26.8212   29.5005    5.2536 C.3       6 UNK        -0.1929 
     42 C          28.0938   30.0237    3.1001 C.2       6 UNK         0.5070 
     43 O          27.4721   31.0746    2.9395 O.2       6 UNK        -0.5237 
     44 N          28.7154   29.3797    2.0991 N.am      7 UNK        -0.4739 
     45 CA         28.7114   29.8166    0.6990 C.3       7 UNK         0.0276 
     46 CB         29.2021   28.6578   -0.1817 C.3       7 UNK        -0.1927 
     47 C          29.5413   31.0874    0.4400 C.2       7 UNK         0.5013 
     48 O          29.2888   31.7841   -0.5440 O.2       7 UNK        -0.5193 
     49 N          30.5008   31.3695    1.3248 N.am      8 UNK        -0.4253 
     50 CA         31.3440   32.5567    1.3458 C.3       8 UNK         0.0242 
     51 CB         32.5543   32.3492    0.4162 C.3       8 UNK        -0.2000 
     52 C          31.7953   32.7762    2.7925 C.2       8 UNK         0.4948 
     53 O          31.7255   31.8449    3.5991 O.2       8 UNK        -0.5275 
     54 N          32.3089   33.9775    3.0917 N.am      9 UNK        -0.4246 
     55 CA         32.8760   34.3336    4.4013 C.3       9 UNK         0.0261 
     56 CB         33.2706   35.8191    4.4045 C.3       9 UNK        -0.1959 
     57 C          34.0737   33.4546    4.8120 C.2       9 UNK         0.5033 
     58 O          34.2639   33.2003    6.0022 O.2       9 UNK        -0.5390 
     59 N          34.8213   32.9623    3.8136 N.am      10 UNK        -0.4215 
     60 CA         35.9108   31.9950    3.9568 C.3       10 UNK         0.0240 
     61 CB         36.6175   31.8367    2.6002 C.3       10 UNK        -0.1982 
     62 C          35.4686   30.6186    4.4918 C.2       10 UNK         0.4970 
     63 O          36.3153   29.8923    5.0140 O.2       10 UNK        -0.4916 
     64 N          34.1773   30.2787    4.3646 N.am      11 UNK        -0.4279 
     65 CA         33.5931   29.0480    4.9163 C.3       11 UNK         0.1003 
     66 C          33.3624   29.0886    6.4550 C.2       11 UNK         0.5709 
     67 N          33.4749   30.2335    7.1212 N.am      11 UNK        -0.7358 
     68 O          33.0972   28.0519    7.0583 O.2       11 UNK        -0.4999 
     69 C69        32.2982   28.6216    4.1737 C.3       12 UNK        -0.0954 
     70 S70        32.4475   28.5209    2.3569 S.3       12 UNK        -0.2268 
     71 C71        33.5799   27.1138    2.1192 C.3       12 UNK         0.0203 
     72 H72        24.4593   20.6099    0.4690 H         1 UNK         0.0888 
     73 H73        25.8347   19.5045    0.4125 H         1 UNK         0.0888 
     74 H74        25.7278   20.7147    1.6926 H         1 UNK         0.0888 
     75 H75        27.2375   20.0614   -1.1940 H         1 UNK         0.3017 
     76 H76        28.1630   21.1165   -2.8691 H         1 UNK         0.0873 
     77 H77        29.8932   21.1589   -1.2324 H         1 UNK         0.0745 
     78 H78        30.0572   22.5322   -2.2725 H         1 UNK         0.0745 
     79 H79        31.8886   23.2105   -0.5512 H         1 UNK         0.0705 
     80 H80        31.5031   21.8992    0.5316 H         1 UNK         0.0705 
     81 H81        32.3924   25.4600    0.3077 H         1 UNK         0.1334 
     82 H82        33.3316   25.7635    4.4814 H         1 UNK         0.1417 
     83 H83        31.3159   22.2875    2.9854 H         1 UNK         0.1562 
     84 H84        32.8833   23.9593    5.9787 H         1 UNK         0.0748 
     85 H85        32.6497   22.3806    5.2736 H         1 UNK         0.0748 
     86 H86        31.1129   25.5897    6.6115 H         1 UNK         0.0940 
     87 H87        29.5154   25.1371    7.1402 H         1 UNK         0.0940 
     88 H88        30.3510   25.9073    4.3112 H         1 UNK         0.0703 
     89 H89        27.9331   24.5190    5.0984 H         1 UNK         0.3081 
     90 H90        27.1712   23.4392    2.5227 H         1 UNK         0.0719 
     91 H91        26.1415   23.6857    4.7383 H         1 UNK         0.0809 
     92 H92        24.8654   23.7728    3.5454 H         1 UNK         0.0809 
     93 H93        25.4491   25.2477    4.3092 H         1 UNK         0.0809 
     94 H94        26.1608   24.3002    0.7928 H         1 UNK         0.2990 
     95 H95        24.3189   25.9724   -0.2405 H         1 UNK         0.0690 
     96 H96        24.5697   28.2507   -1.2533 H         1 UNK         0.0788 
     97 H97        25.8543   28.6313   -0.1094 H         1 UNK         0.0788 
     98 H98        24.2070   28.3871    0.4536 H         1 UNK         0.0788 
     99 H99        27.1403   25.7943   -0.6139 H         1 UNK         0.2993 
    100 H100       26.9350   25.2531   -4.1703 H         1 UNK         0.0949 
    101 H101       27.9770   27.4805   -3.5643 H         1 UNK         0.0767 
    102 H102       28.8701   26.6814   -2.2751 H         1 UNK         0.0767 
    103 H103       29.1561   26.2388   -3.9537 H         1 UNK         0.0767 
    104 H104       28.6661   24.2951   -2.0208 H         1 UNK         0.3013 
    105 H105       28.3749   27.5055    3.5843 H         1 UNK         0.3121 
    106 H106       28.9166   29.9716    5.0566 H         1 UNK         0.0774 
    107 H107       26.4973   30.5376    5.3478 H         1 UNK         0.0815 
    108 H108       26.0345   28.9566    4.7288 H         1 UNK         0.0815 
    109 H109       26.8939   29.0954    6.2629 H         1 UNK         0.0815 
    110 H110       29.2333   28.5354    2.2988 H         1 UNK         0.2987 
    111 H111       27.6813   30.0478    0.4214 H         1 UNK         0.0949 
    112 H112       28.5791   27.7731   -0.0502 H         1 UNK         0.0806 
    113 H113       29.1669   28.9300   -1.2373 H         1 UNK         0.0806 
    114 H114       30.2308   28.3800    0.0515 H         1 UNK         0.0806 
    115 H115       30.6230   30.7667    2.1301 H         1 UNK         0.3010 
    116 H116       30.7631   33.4235    1.0234 H         1 UNK         0.0829 
    117 H117       32.2378   32.1719   -0.6118 H         1 UNK         0.0813 
    118 H118       33.2021   33.2263    0.4051 H         1 UNK         0.0813 
    119 H119       33.1588   31.4962    0.7290 H         1 UNK         0.0813 
    120 H120       32.3303   34.6923    2.3776 H         1 UNK         0.3038 
    121 H121       32.0943   34.1848    5.1495 H         1 UNK         0.0769 
    122 H122       34.0325   36.0381    3.6553 H         1 UNK         0.0811 
    123 H123       33.6744   36.1127    5.3747 H         1 UNK         0.0811 
    124 H124       32.4105   36.4594    4.2077 H         1 UNK         0.0811 
    125 H125       34.5849   33.2377    2.8720 H         1 UNK         0.3204 
    126 H126       36.6257   32.4058    4.6727 H         1 UNK         0.0748 
    127 H127       37.4594   31.1469    2.6762 H         1 UNK         0.0771 
    128 H128       35.9435   31.4445    1.8372 H         1 UNK         0.0771 
    129 H129       37.0135   32.7880    2.2440 H         1 UNK         0.0771 
    130 H130       33.5147   30.9281    3.9561 H         1 UNK         0.2980 
    131 H131       34.3223   28.2510    4.7677 H         1 UNK         0.0545 
    132 H132       33.7061   31.0939    6.6430 H         1 UNK         0.3459 
    133 H133       33.3293   30.2366    8.1180 H         1 UNK         0.3459 
    134 H134       31.4929   29.3232    4.3961 H         1 UNK         0.0616 
    135 H135       31.9562   27.6566    4.5412 H         1 UNK         0.0616 
    136 H136       34.4608   27.2264    2.7508 H         1 UNK         0.0634 
    137 H137       33.9501   27.1498    1.0936 H         1 UNK         0.0634 
@<TRIPOS>BOND
     1    1    2 1    
     2    1   72 1    
     3    1   73 1    
     4    1   74 1    
     5    2    3 2    
     6    2    4 am   BACKBONE|DICT|INTERRES
     7    4    5 1    
     8    4   75 1    
     9    5    6 1    
    10    5   35 1    
    11    5   76 1    
    12    6    7 1    
    13    6   77 1    
    14    6   78 1    
    15    7    8 1    
    16    8    9 1    
    17    8   79 1    
    18    8   80 1    
    19    9   10 ar   
    20    9   14 ar   
    21   10   11 ar   
    22   10   81 1    
    23   11   12 ar   
    24   11   71 1    
    25   12   13 ar   
    26   12   82 1    
    27   13   14 ar   
    28   13   15 1    
    29   14   83 1    
    30   15   16 1    
    31   15   84 1    
    32   15   85 1    
    33   16   17 1    
    34   17   18 1    
    35   17   86 1    
    36   17   87 1    
    37   18   19 1    
    38   18   37 1    
    39   18   88 1    
    40   19   20 am   BACKBONE|DICT|INTERRES
    41   19   89 1    
    42   20   21 2    
    43   20   22 1    
    44   22   23 1    
    45   22   24 1    
    46   22   90 1    
    47   23   91 1    
    48   23   92 1    
    49   23   93 1    
    50   24   25 am   BACKBONE|DICT|INTERRES
    51   24   94 1    
    52   25   26 2    
    53   25   27 1    
    54   27   28 1    
    55   27   29 1    
    56   27   95 1    
    57   28   96 1    
    58   28   97 1    
    59   28   98 1    
    60   29   30 am   BACKBONE|DICT|INTERRES
    61   29   99 1    
    62   30   31 2    
    63   30   32 1    
    64   32   33 1    
    65   32   34 1    
    66   32  100 1    
    67   33  101 1    
    68   33  102 1    
    69   33  103 1    
    70   34   35 am   BACKBONE|DICT|INTERRES
    71   34  104 1    
    72   35   36 2    
    73   37   38 2    
    74   37   39 am   BACKBONE|DICT|INTERRES
    75   39   40 1    
    76   39  105 1    
    77   40   41 1    
    78   40   42 1    
    79   40  106 1    
    80   41  107 1    
    81   41  108 1    
    82   41  109 1    
    83   42   43 2    
    84   42   44 am   BACKBONE|DICT|INTERRES
    85   44   45 1    
    86   44  110 1    
    87   45   46 1    
    88   45   47 1    
    89   45  111 1    
    90   46  112 1    
    91   46  113 1    
    92   46  114 1    
    93   47   48 2    
    94   47   49 am   BACKBONE|DICT|INTERRES
    95   49   50 1    
    96   49  115 1    
    97   50   51 1    
    98   50   52 1    
    99   50  116 1    
   100   51  117 1    
   101   51  118 1    
   102   51  119 1    
   103   52   53 2    
   104   52   54 am   BACKBONE|DICT|INTERRES
   105   54   55 1    
   106   54  120 1    
   107   55   56 1    
   108   55   57 1    
   109   55  121 1    
   110   56  122 1    
   111   56  123 1    
   112   56  124 1    
   113   57   58 2    
   114   57   59 am   BACKBONE|DICT|INTERRES
   115   59   60 1    
   116   59  125 1    
   117   60   61 1    
   118   60   62 1    
   119   60  126 1    
   120   61  127 1    
   121   61  128 1    
   122   61  129 1    
   123   62   63 2    
   124   62   64 am   BACKBONE|DICT|INTERRES
   125   64   65 1    
   126   64  130 1    
   127   65   66 1    
   128   65   69 1    
   129   65  131 1    
   130   66   67 am   BACKBONE|DICT|INTERRES
   131   66   68 2    
   132   67  132 1    
   133   67  133 1    
   134   69   70 1    
   135   69  134 1    
   136   69  135 1    
   137   70   71 1    
   138   71  136 1    
   139   71  137 1    
@<TRIPOS>SUBSTRUCTURE
     1 UNK         1 GROUP             0       ****    0 ROOT    
