@<TRIPOS>MOLECULE
3R136
137   139    1
SMALL
USER_CHARGES


@<TRIPOS>ATOM
      1 CA         31.8280   26.2344   -0.1821 C.3       0 UNK        -0.1979 
      2 C          31.5056   24.8403   -0.6918 C.2       0 UNK         0.4864 
      3 O          31.9952   24.4439   -1.7506 O.2       0 UNK        -0.5359 
      4 N          30.6628   24.1042    0.0426 N.am      1 UNK        -0.4318 
      5 CA         30.2015   22.7324   -0.2128 C.3       1 UNK         0.0824 
      6 C6         31.3557   21.6925   -0.2928 C.3       12 UNK        -0.0944 
      7 S7         30.9417   20.1585    0.5993 S.3       12 UNK        -0.2672 
      8 C8         31.8124   20.4178    2.1799 C.3       12 UNK         0.0333 
      9 C9         31.3006   21.6420    2.9299 C.ar      12 UNK        -0.0807 
     10 C10        32.0659   22.8115    2.9820 C.ar      12 UNK        -0.0894 
     11 C11        31.6103   23.9347    3.6807 C.ar      12 UNK        -0.0804 
     12 C12        30.3813   23.8699    4.3466 C.ar      12 UNK        -0.0824 
     13 C13        29.5976   22.7143    4.2870 C.ar      12 UNK        -0.0762 
     14 C14        30.0641   21.6021    3.5795 C.ar      12 UNK        -0.0782 
     15 C15        28.2514   22.6605    4.9930 C.3       12 UNK         0.0230 
     16 S16        27.0039   23.6787    4.1398 S.3       12 UNK        -0.2608 
     17 C17        27.0276   25.2329    5.1032 C.3       12 UNK        -0.0989 
     18 CA         27.4432   26.4838    4.2803 C.3       5 UNK         0.0716 
     19 N          26.6128   26.6383    3.0818 N.am      5 UNK        -0.4135 
     20 C          26.9272   27.3538    1.9959 C.2       4 UNK         0.5031 
     21 O          27.9589   28.0194    1.8835 O.2       4 UNK        -0.5229 
     22 CA         25.8862   27.3574    0.8621 C.3       4 UNK         0.0329 
     23 CB         24.9192   28.5399    1.0379 C.3       4 UNK        -0.2001 
     24 N          26.4950   27.4318   -0.4698 N.am      4 UNK        -0.4303 
     25 C          27.3469   26.5292   -0.9735 C.2       3 UNK         0.5044 
     26 O          27.6994   25.5099   -0.3744 O.2       3 UNK        -0.5152 
     27 CA         27.9051   26.8320   -2.3763 C.3       3 UNK         0.0319 
     28 CB         28.9162   27.9898   -2.3235 C.3       3 UNK        -0.2001 
     29 N          28.5751   25.6524   -2.9211 N.am      3 UNK        -0.4354 
     30 C          27.9639   24.6347   -3.5428 C.2       2 UNK         0.4964 
     31 O          26.7911   24.6566   -3.9180 O.2       2 UNK        -0.5047 
     32 CA         28.8063   23.3628   -3.7435 C.3       2 UNK         0.0288 
     33 CB         29.6750   23.4717   -5.0070 C.3       2 UNK        -0.2113 
     34 N          29.6609   23.1149   -2.5799 N.am      2 UNK        -0.4145 
     35 C          29.2286   22.6320   -1.4068 C.2       1 UNK         0.5006 
     36 O          28.1065   22.1502   -1.2403 O.2       1 UNK        -0.5103 
     37 C          27.4024   27.7694    5.1406 C.2       5 UNK         0.5055 
     38 O          26.8539   27.7516    6.2448 O.2       5 UNK        -0.5220 
     39 N          27.9422   28.8713    4.6102 N.am      6 UNK        -0.4450 
     40 CA         27.9326   30.1957    5.2235 C.3       6 UNK         0.0367 
     41 CB         26.8094   31.0278    4.5786 C.3       6 UNK        -0.1929 
     42 C          29.2870   30.8846    5.0329 C.2       6 UNK         0.5070 
     43 O          30.0616   30.5104    4.1472 O.2       6 UNK        -0.5237 
     44 N          29.5179   31.9362    5.8305 N.am      7 UNK        -0.4739 
     45 CA         30.7120   32.7893    5.7863 C.3       7 UNK         0.0276 
     46 CB         30.6583   33.8028    6.9398 C.3       7 UNK        -0.1927 
     47 C          30.9126   33.5118    4.4422 C.2       7 UNK         0.5013 
     48 O          32.0521   33.8068    4.0844 O.2       7 UNK        -0.5193 
     49 N          29.8224   33.7165    3.6881 N.am      8 UNK        -0.4253 
     50 CA         29.8272   34.2054    2.3054 C.3       8 UNK         0.0242 
     51 CB         28.3769   34.4159    1.8410 C.3       8 UNK        -0.2000 
     52 C          30.5768   33.2823    1.3229 C.2       8 UNK         0.4948 
     53 O          31.0951   33.7742    0.3203 O.2       8 UNK        -0.5275 
     54 N          30.6460   31.9805    1.6374 N.am      9 UNK        -0.4246 
     55 CA         31.4287   30.9749    0.9159 C.3       9 UNK         0.0261 
     56 CB         30.5421   29.7411    0.6845 C.3       9 UNK        -0.1959 
     57 C          32.7119   30.5928    1.6814 C.2       9 UNK         0.5033 
     58 O          33.3565   29.6105    1.3125 O.2       9 UNK        -0.5390 
     59 N          33.0538   31.3568    2.7321 N.am      10 UNK        -0.4215 
     60 CA         34.1706   31.1687    3.6652 C.3       10 UNK         0.0240 
     61 CB         35.5293   31.2630    2.9372 C.3       10 UNK        -0.1982 
     62 C          34.0560   29.9127    4.5537 C.2       10 UNK         0.4970 
     63 O          35.0659   29.4939    5.1234 O.2       10 UNK        -0.4916 
     64 N          32.8503   29.3436    4.6879 N.am      11 UNK        -0.4279 
     65 CA         32.5770   28.2070    5.5788 C.3       11 UNK         0.1003 
     66 C          32.4179   28.6542    7.0568 C.2       11 UNK         0.5709 
     67 N          32.6720   27.7603    8.0030 N.am      11 UNK        -0.7358 
     68 O          32.0387   29.7848    7.3567 O.2       11 UNK        -0.4999 
     69 C69        31.3531   27.3781    5.1126 C.3       12 UNK        -0.0954 
     70 S70        31.5473   26.7316    3.4185 S.3       12 UNK        -0.2268 
     71 C71        32.4747   25.1913    3.7290 C.3       12 UNK         0.0203 
     72 H72        32.0028   26.9157   -1.0142 H         1 UNK         0.0888 
     73 H73        31.0099   26.6336    0.4177 H         1 UNK         0.0888 
     74 H74        32.7269   26.2139    0.4334 H         1 UNK         0.0888 
     75 H75        30.2643   24.5215    0.8731 H         1 UNK         0.3017 
     76 H76        29.6014   22.5105    0.6716 H         1 UNK         0.0873 
     77 H77        31.6132   21.4447   -1.3244 H         1 UNK         0.0745 
     78 H78        32.2736   22.0978    0.1348 H         1 UNK         0.0745 
     79 H79        32.8840   20.4991    1.9907 H         1 UNK         0.0705 
     80 H80        31.6814   19.5321    2.8032 H         1 UNK         0.0705 
     81 H81        33.0216   22.8459    2.4768 H         1 UNK         0.1334 
     82 H82        30.0230   24.7229    4.9027 H         1 UNK         0.1417 
     83 H83        29.4667   20.7015    3.5311 H         1 UNK         0.1562 
     84 H84        28.3622   22.9645    6.0344 H         1 UNK         0.0748 
     85 H85        27.8843   21.6334    5.0240 H         1 UNK         0.0748 
     86 H86        27.6865   25.1225    5.9659 H         1 UNK         0.0940 
     87 H87        26.0251   25.3650    5.5156 H         1 UNK         0.0940 
     88 H88        28.4767   26.3438    3.9573 H         1 UNK         0.0703 
     89 H89        25.7376   26.1360    3.0944 H         1 UNK         0.3081 
     90 H90        25.3163   26.4270    0.9095 H         1 UNK         0.0719 
     91 H91        25.4399   29.4969    0.9790 H         1 UNK         0.0809 
     92 H92        24.1385   28.5334    0.2770 H         1 UNK         0.0809 
     93 H93        24.4228   28.5003    2.0085 H         1 UNK         0.0809 
     94 H94        26.2856   28.2558   -1.0136 H         1 UNK         0.2990 
     95 H95        27.0763   27.1138   -3.0293 H         1 UNK         0.0690 
     96 H96        29.3329   28.1983   -3.3091 H         1 UNK         0.0788 
     97 H97        29.7436   27.7699   -1.6497 H         1 UNK         0.0788 
     98 H98        28.4476   28.9097   -1.9718 H         1 UNK         0.0788 
     99 H99        29.5291   25.5125   -2.6263 H         1 UNK         0.2993 
    100 H100       28.1219   22.5202   -3.8655 H         1 UNK         0.0949 
    101 H101       30.2333   22.5519   -5.1827 H         1 UNK         0.0767 
    102 H102       29.0584   23.6501   -5.8891 H         1 UNK         0.0767 
    103 H103       30.3922   24.2907   -4.9377 H         1 UNK         0.0767 
    104 H104       30.6011   23.5045   -2.5933 H         1 UNK         0.3013 
    105 H105       28.3731   28.8098    3.6903 H         1 UNK         0.3121 
    106 H106       27.7519   30.1126    6.2974 H         1 UNK         0.0774 
    107 H107       26.7470   32.0237    5.0185 H         1 UNK         0.0815 
    108 H108       26.9656   31.1505    3.5057 H         1 UNK         0.0815 
    109 H109       25.8378   30.5541    4.7200 H         1 UNK         0.0815 
    110 H110       28.8251   32.1750    6.5262 H         1 UNK         0.2987 
    111 H111       31.5807   32.1444    5.9365 H         1 UNK         0.0949 
    112 H112       29.7904   34.4589    6.8630 H         1 UNK         0.0806 
    113 H113       30.6178   33.3006    7.9066 H         1 UNK         0.0806 
    114 H114       31.5468   34.4361    6.9443 H         1 UNK         0.0806 
    115 H115       28.9288   33.4477    4.0724 H         1 UNK         0.3010 
    116 H116       30.3365   35.1715    2.2980 H         1 UNK         0.0829 
    117 H117       27.8561   35.1336    2.4751 H         1 UNK         0.0813 
    118 H118       28.3465   34.8056    0.8223 H         1 UNK         0.0813 
    119 H119       27.8100   33.4840    1.8498 H         1 UNK         0.0813 
    120 H120       30.2102   31.6522    2.4943 H         1 UNK         0.3038 
    121 H121       31.7357   31.3604   -0.0582 H         1 UNK         0.0769 
    122 H122       31.0406   29.0289    0.0289 H         1 UNK         0.0811 
    123 H123       29.5943   30.0054    0.2156 H         1 UNK         0.0811 
    124 H124       30.3215   29.2254    1.6201 H         1 UNK         0.0811 
    125 H125       32.4743   32.1636    2.9374 H         1 UNK         0.3204 
    126 H126       34.1187   32.0124    4.3545 H         1 UNK         0.0748 
    127 H127       36.3545   31.3008    3.6494 H         1 UNK         0.0771 
    128 H128       35.7023   30.4044    2.2879 H         1 UNK         0.0771 
    129 H129       35.5906   32.1641    2.3269 H         1 UNK         0.0771 
    130 H130       32.0419   29.7558    4.2374 H         1 UNK         0.2980 
    131 H131       33.4444   27.5450    5.5425 H         1 UNK         0.0545 
    132 H132       32.9789   26.8278    7.7751 H         1 UNK         0.3459 
    133 H133       32.5634   28.0290    8.9684 H         1 UNK         0.3459 
    134 H134       31.1703   26.5435    5.7908 H         1 UNK         0.0616 
    135 H135       30.4543   27.9913    5.1395 H         1 UNK         0.0616 
    136 H136       33.2631   25.1322    2.9772 H         1 UNK         0.0634 
    137 H137       32.9804   25.2402    4.6937 H         1 UNK         0.0634 
@<TRIPOS>BOND
     1    1    2 1    
     2    1   72 1    
     3    1   73 1    
     4    1   74 1    
     5    2    3 2    
     6    2    4 am   BACKBONE|DICT|INTERRES
     7    4    5 1    
     8    4   75 1    
     9    5    6 1    
    10    5   35 1    
    11    5   76 1    
    12    6    7 1    
    13    6   77 1    
    14    6   78 1    
    15    7    8 1    
    16    8    9 1    
    17    8   79 1    
    18    8   80 1    
    19    9   10 ar   
    20    9   14 ar   
    21   10   11 ar   
    22   10   81 1    
    23   11   12 ar   
    24   11   71 1    
    25   12   13 ar   
    26   12   82 1    
    27   13   14 ar   
    28   13   15 1    
    29   14   83 1    
    30   15   16 1    
    31   15   84 1    
    32   15   85 1    
    33   16   17 1    
    34   17   18 1    
    35   17   86 1    
    36   17   87 1    
    37   18   19 1    
    38   18   37 1    
    39   18   88 1    
    40   19   20 am   BACKBONE|DICT|INTERRES
    41   19   89 1    
    42   20   21 2    
    43   20   22 1    
    44   22   23 1    
    45   22   24 1    
    46   22   90 1    
    47   23   91 1    
    48   23   92 1    
    49   23   93 1    
    50   24   25 am   BACKBONE|DICT|INTERRES
    51   24   94 1    
    52   25   26 2    
    53   25   27 1    
    54   27   28 1    
    55   27   29 1    
    56   27   95 1    
    57   28   96 1    
    58   28   97 1    
    59   28   98 1    
    60   29   30 am   BACKBONE|DICT|INTERRES
    61   29   99 1    
    62   30   31 2    
    63   30   32 1    
    64   32   33 1    
    65   32   34 1    
    66   32  100 1    
    67   33  101 1    
    68   33  102 1    
    69   33  103 1    
    70   34   35 am   BACKBONE|DICT|INTERRES
    71   34  104 1    
    72   35   36 2    
    73   37   38 2    
    74   37   39 am   BACKBONE|DICT|INTERRES
    75   39   40 1    
    76   39  105 1    
    77   40   41 1    
    78   40   42 1    
    79   40  106 1    
    80   41  107 1    
    81   41  108 1    
    82   41  109 1    
    83   42   43 2    
    84   42   44 am   BACKBONE|DICT|INTERRES
    85   44   45 1    
    86   44  110 1    
    87   45   46 1    
    88   45   47 1    
    89   45  111 1    
    90   46  112 1    
    91   46  113 1    
    92   46  114 1    
    93   47   48 2    
    94   47   49 am   BACKBONE|DICT|INTERRES
    95   49   50 1    
    96   49  115 1    
    97   50   51 1    
    98   50   52 1    
    99   50  116 1    
   100   51  117 1    
   101   51  118 1    
   102   51  119 1    
   103   52   53 2    
   104   52   54 am   BACKBONE|DICT|INTERRES
   105   54   55 1    
   106   54  120 1    
   107   55   56 1    
   108   55   57 1    
   109   55  121 1    
   110   56  122 1    
   111   56  123 1    
   112   56  124 1    
   113   57   58 2    
   114   57   59 am   BACKBONE|DICT|INTERRES
   115   59   60 1    
   116   59  125 1    
   117   60   61 1    
   118   60   62 1    
   119   60  126 1    
   120   61  127 1    
   121   61  128 1    
   122   61  129 1    
   123   62   63 2    
   124   62   64 am   BACKBONE|DICT|INTERRES
   125   64   65 1    
   126   64  130 1    
   127   65   66 1    
   128   65   69 1    
   129   65  131 1    
   130   66   67 am   BACKBONE|DICT|INTERRES
   131   66   68 2    
   132   67  132 1    
   133   67  133 1    
   134   69   70 1    
   135   69  134 1    
   136   69  135 1    
   137   70   71 1    
   138   71  136 1    
   139   71  137 1    
@<TRIPOS>SUBSTRUCTURE
     1 UNK         1 GROUP             0       ****    0 ROOT    
