@<TRIPOS>MOLECULE
3R136
137   139    1
SMALL
USER_CHARGES


@<TRIPOS>ATOM
      1 CA         27.6628   21.6405    3.0576 C.3       0 UNK        -0.1979 
      2 C          28.3373   21.2106    1.7674 C.2       0 UNK         0.4864 
      3 O          27.6562   20.7158    0.8692 O.2       0 UNK        -0.5359 
      4 N          29.6599   21.4094    1.6617 N.am      1 UNK        -0.4318 
      5 CA         30.5336   20.9191    0.5817 C.3       1 UNK         0.0824 
      6 C6         32.0358   21.2399    0.8181 C.3       12 UNK        -0.0944 
      7 S7         32.5739   21.0472    2.5568 S.3       12 UNK        -0.2672 
      8 C8         32.9520   22.7673    3.0395 C.3       12 UNK         0.0333 
      9 C9         31.7384   23.6816    2.9275 C.ar      12 UNK        -0.0807 
     10 C10        31.5828   24.5005    1.8042 C.ar      12 UNK        -0.0894 
     11 C11        30.4612   25.3198    1.6775 C.ar      12 UNK        -0.0804 
     12 C12        29.4928   25.3127    2.6805 C.ar      12 UNK        -0.0824 
     13 C13        29.6539   24.5467    3.8380 C.ar      12 UNK        -0.0762 
     14 C14        30.7820   23.7243    3.9497 C.ar      12 UNK        -0.0782 
     15 C15        28.6553   24.6339    4.9943 C.3       12 UNK         0.0230 
     16 S16        26.9240   24.9216    4.4748 S.3       12 UNK        -0.2608 
     17 C17        26.6066   26.6343    5.0301 C.3       12 UNK        -0.0989 
     18 CA         27.0168   27.7323    4.0103 C.3       5 UNK         0.0716 
     19 N          26.4539   27.4909    2.6693 N.am      5 UNK        -0.4135 
     20 C          26.8561   28.0375    1.5133 C.2       4 UNK         0.5031 
     21 O          27.7654   28.8686    1.4419 O.2       4 UNK        -0.5229 
     22 CA         26.1140   27.6064    0.2331 C.3       4 UNK         0.0329 
     23 CB         26.6152   28.3633   -1.0116 C.3       4 UNK        -0.2001 
     24 N          26.1963   26.1689   -0.0384 N.am      4 UNK        -0.4303 
     25 C          25.5243   25.2011    0.5929 C.2       3 UNK         0.5044 
     26 O          24.8137   25.4120    1.5768 O.2       3 UNK        -0.5152 
     27 CA         25.6152   23.7636    0.0355 C.3       3 UNK         0.0319 
     28 CB         24.4480   23.4981   -0.9341 C.3       3 UNK        -0.2001 
     29 N          26.8913   23.3459   -0.5733 N.am      3 UNK        -0.4354 
     30 C          27.5364   23.8402   -1.6442 C.2       2 UNK         0.4964 
     31 O          27.1686   24.8372   -2.2658 O.2       2 UNK        -0.5047 
     32 CA         28.8161   23.1038   -2.0791 C.3       2 UNK         0.0288 
     33 CB         29.7560   23.9642   -2.9461 C.3       2 UNK        -0.2113 
     34 N          29.5275   22.5893   -0.9087 N.am      2 UNK        -0.4145 
     35 C          30.0989   21.3803   -0.8265 C.2       1 UNK         0.5006 
     36 O          30.2530   20.6242   -1.7876 O.2       1 UNK        -0.5103 
     37 C          26.7320   29.1608    4.5426 C.2       5 UNK         0.5055 
     38 O          26.2547   29.3229    5.6676 O.2       5 UNK        -0.5220 
     39 N          27.0185   30.1695    3.7153 N.am      6 UNK        -0.4450 
     40 CA         26.8515   31.5964    3.9793 C.3       6 UNK         0.0367 
     41 CB         25.5120   32.0739    3.3939 C.3       6 UNK        -0.1929 
     42 C          28.0186   32.4267    3.4215 C.2       6 UNK         0.5070 
     43 O          28.2386   33.5362    3.9099 O.2       6 UNK        -0.5237 
     44 N          28.7692   31.9029    2.4369 N.am      7 UNK        -0.4739 
     45 CA         29.9593   32.5462    1.8665 C.3       7 UNK         0.0276 
     46 CB         30.2137   31.9868    0.4539 C.3       7 UNK        -0.1927 
     47 C          31.1722   32.3813    2.8022 C.2       7 UNK         0.5013 
     48 O          32.1105   31.6494    2.4794 O.2       7 UNK        -0.5193 
     49 N          31.1012   33.0454    3.9643 N.am      8 UNK        -0.4253 
     50 CA         31.9612   32.9086    5.1487 C.3       8 UNK         0.0242 
     51 CB         31.5620   33.9829    6.1734 C.3       8 UNK        -0.2000 
     52 C          33.4844   32.9344    4.9211 C.2       8 UNK         0.4948 
     53 O          34.2165   32.3855    5.7451 O.2       8 UNK        -0.5275 
     54 N          33.9371   33.5402    3.8155 N.am      9 UNK        -0.4246 
     55 CA         35.3332   33.5516    3.3717 C.3       9 UNK         0.0261 
     56 CB         35.4695   34.5039    2.1723 C.3       9 UNK        -0.1959 
     57 C          35.8960   32.1595    3.0166 C.2       9 UNK         0.5033 
     58 O          37.1142   31.9847    3.0809 O.2       9 UNK        -0.5390 
     59 N          35.0260   31.2072    2.6494 N.am      10 UNK        -0.4215 
     60 CA         35.4019   29.8313    2.3036 C.3       10 UNK         0.0240 
     61 CB         35.5222   29.6984    0.7754 C.3       10 UNK        -0.1982 
     62 C          34.4209   28.7885    2.8603 C.2       10 UNK         0.4970 
     63 O          34.8559   27.7044    3.2494 O.2       10 UNK        -0.4916 
     64 N          33.1286   29.1247    2.8832 N.am      11 UNK        -0.4279 
     65 CA         32.0121   28.2589    3.2854 C.3       11 UNK         0.1003 
     66 C          31.5440   28.4944    4.7510 C.2       11 UNK         0.5709 
     67 N          32.2775   29.2363    5.5725 N.am      11 UNK        -0.7358 
     68 O          30.5042   27.9863    5.1621 O.2       11 UNK        -0.4999 
     69 C69        30.8507   28.3988    2.2680 C.3       12 UNK        -0.0954 
     70 S70        31.3091   27.7550    0.6201 S.3       12 UNK        -0.2268 
     71 C71        30.3014   26.2422    0.4781 C.3       12 UNK         0.0203 
     72 H72        27.0257   22.5036    2.8729 H         1 UNK         0.0888 
     73 H73        28.3865   21.8985    3.8289 H         1 UNK         0.0888 
     74 H74        27.0389   20.8341    3.4417 H         1 UNK         0.0888 
     75 H75        30.1563   21.8494    2.4253 H         1 UNK         0.3017 
     76 H76        30.4288   19.8322    0.5942 H         1 UNK         0.0873 
     77 H77        32.2858   22.2428    0.4732 H         1 UNK         0.0745 
     78 H78        32.6479   20.5722    0.2090 H         1 UNK         0.0745 
     79 H79        33.3205   22.7728    4.0664 H         1 UNK         0.0705 
     80 H80        33.7712   23.1408    2.4229 H         1 UNK         0.0705 
     81 H81        32.3367   24.5094    1.0289 H         1 UNK         0.1334 
     82 H82        28.6299   25.9464    2.5693 H         1 UNK         0.1417 
     83 H83        30.9221   23.1197    4.8360 H         1 UNK         0.1562 
     84 H84        28.9817   25.4248    5.6706 H         1 UNK         0.0748 
     85 H85        28.6785   23.7098    5.5735 H         1 UNK         0.0748 
     86 H86        25.5388   26.7093    5.2444 H         1 UNK         0.0940 
     87 H87        27.1101   26.7917    5.9860 H         1 UNK         0.0940 
     88 H88        28.1012   27.6809    3.9206 H         1 UNK         0.0703 
     89 H89        25.7181   26.7916    2.6146 H         1 UNK         0.3081 
     90 H90        25.0629   27.8660    0.3753 H         1 UNK         0.0719 
     91 H91        27.6639   28.1455   -1.2191 H         1 UNK         0.0809 
     92 H92        26.0369   28.0991   -1.8972 H         1 UNK         0.0809 
     93 H93        26.5260   29.4424   -0.8783 H         1 UNK         0.0809 
     94 H94        26.7116   25.8900   -0.8706 H         1 UNK         0.2990 
     95 H95        25.4793   23.1027    0.8932 H         1 UNK         0.0690 
     96 H96        24.4206   22.4535   -1.2444 H         1 UNK         0.0788 
     97 H97        24.5182   24.1133   -1.8319 H         1 UNK         0.0788 
     98 H98        23.4894   23.7201   -0.4630 H         1 UNK         0.0788 
     99 H99        27.2744   22.4977   -0.1676 H         1 UNK         0.2993 
    100 H100       28.4748   22.2638   -2.6884 H         1 UNK         0.0949 
    101 H101       29.2657   24.2598   -3.8745 H         1 UNK         0.0767 
    102 H102       30.0600   24.8774   -2.4377 H         1 UNK         0.0767 
    103 H103       30.6572   23.4151   -3.2195 H         1 UNK         0.0767 
    104 H104       29.4605   23.1405   -0.0641 H         1 UNK         0.3013 
    105 H105       27.3790   29.9015    2.8010 H         1 UNK         0.3121 
    106 H106       26.8391   31.7636    5.0586 H         1 UNK         0.0774 
    107 H107       24.6722   31.5460    3.8460 H         1 UNK         0.0815 
    108 H108       25.4656   31.9175    2.3155 H         1 UNK         0.0815 
    109 H109       25.3619   33.1386    3.5779 H         1 UNK         0.0815 
    110 H110       28.5497   30.9862    2.0726 H         1 UNK         0.2987 
    111 H111       29.7714   33.6174    1.7628 H         1 UNK         0.0949 
    112 H112       29.3739   32.1949   -0.2091 H         1 UNK         0.0806 
    113 H113       30.3736   30.9091    0.4556 H         1 UNK         0.0806 
    114 H114       31.0977   32.4440    0.0075 H         1 UNK         0.0806 
    115 H115       30.2459   33.5736    4.1090 H         1 UNK         0.3010 
    116 H116       31.7291   31.9349    5.5816 H         1 UNK         0.0829 
    117 H117       30.5132   33.8920    6.4573 H         1 UNK         0.0813 
    118 H118       32.1506   33.8929    7.0878 H         1 UNK         0.0813 
    119 H119       31.7184   34.9890    5.7822 H         1 UNK         0.0813 
    120 H120       33.2582   33.9559    3.1946 H         1 UNK         0.3038 
    121 H121       35.9371   33.9451    4.1921 H         1 UNK         0.0769 
    122 H122       34.8680   34.1736    1.3243 H         1 UNK         0.0811 
    123 H123       36.5053   34.5600    1.8343 H         1 UNK         0.0811 
    124 H124       35.1607   35.5169    2.4311 H         1 UNK         0.0811 
    125 H125       34.0380   31.4440    2.6196 H         1 UNK         0.3204 
    126 H126       36.3743   29.5976    2.7428 H         1 UNK         0.0748 
    127 H127       36.2889   30.3646    0.3795 H         1 UNK         0.0771 
    128 H128       35.7972   28.6818    0.4908 H         1 UNK         0.0771 
    129 H129       34.5814   29.9350    0.2762 H         1 UNK         0.0771 
    130 H130       32.8376   30.0488    2.5740 H         1 UNK         0.2980 
    131 H131       32.3405   27.2183    3.2635 H         1 UNK         0.0545 
    132 H132       31.9695   29.3632    6.5230 H         1 UNK         0.3459 
    133 H133       33.1464   29.6399    5.2624 H         1 UNK         0.3459 
    134 H134       29.9561   27.8901    2.6126 H         1 UNK         0.0616 
    135 H135       30.5569   29.4417    2.1689 H         1 UNK         0.0616 
    136 H136       30.6027   25.7136   -0.4245 H         1 UNK         0.0634 
    137 H137       29.2561   26.5207    0.3389 H         1 UNK         0.0634 
@<TRIPOS>BOND
     1    1    2 1    
     2    1   72 1    
     3    1   73 1    
     4    1   74 1    
     5    2    3 2    
     6    2    4 am   BACKBONE|DICT|INTERRES
     7    4    5 1    
     8    4   75 1    
     9    5    6 1    
    10    5   35 1    
    11    5   76 1    
    12    6    7 1    
    13    6   77 1    
    14    6   78 1    
    15    7    8 1    
    16    8    9 1    
    17    8   79 1    
    18    8   80 1    
    19    9   10 ar   
    20    9   14 ar   
    21   10   11 ar   
    22   10   81 1    
    23   11   12 ar   
    24   11   71 1    
    25   12   13 ar   
    26   12   82 1    
    27   13   14 ar   
    28   13   15 1    
    29   14   83 1    
    30   15   16 1    
    31   15   84 1    
    32   15   85 1    
    33   16   17 1    
    34   17   18 1    
    35   17   86 1    
    36   17   87 1    
    37   18   19 1    
    38   18   37 1    
    39   18   88 1    
    40   19   20 am   BACKBONE|DICT|INTERRES
    41   19   89 1    
    42   20   21 2    
    43   20   22 1    
    44   22   23 1    
    45   22   24 1    
    46   22   90 1    
    47   23   91 1    
    48   23   92 1    
    49   23   93 1    
    50   24   25 am   BACKBONE|DICT|INTERRES
    51   24   94 1    
    52   25   26 2    
    53   25   27 1    
    54   27   28 1    
    55   27   29 1    
    56   27   95 1    
    57   28   96 1    
    58   28   97 1    
    59   28   98 1    
    60   29   30 am   BACKBONE|DICT|INTERRES
    61   29   99 1    
    62   30   31 2    
    63   30   32 1    
    64   32   33 1    
    65   32   34 1    
    66   32  100 1    
    67   33  101 1    
    68   33  102 1    
    69   33  103 1    
    70   34   35 am   BACKBONE|DICT|INTERRES
    71   34  104 1    
    72   35   36 2    
    73   37   38 2    
    74   37   39 am   BACKBONE|DICT|INTERRES
    75   39   40 1    
    76   39  105 1    
    77   40   41 1    
    78   40   42 1    
    79   40  106 1    
    80   41  107 1    
    81   41  108 1    
    82   41  109 1    
    83   42   43 2    
    84   42   44 am   BACKBONE|DICT|INTERRES
    85   44   45 1    
    86   44  110 1    
    87   45   46 1    
    88   45   47 1    
    89   45  111 1    
    90   46  112 1    
    91   46  113 1    
    92   46  114 1    
    93   47   48 2    
    94   47   49 am   BACKBONE|DICT|INTERRES
    95   49   50 1    
    96   49  115 1    
    97   50   51 1    
    98   50   52 1    
    99   50  116 1    
   100   51  117 1    
   101   51  118 1    
   102   51  119 1    
   103   52   53 2    
   104   52   54 am   BACKBONE|DICT|INTERRES
   105   54   55 1    
   106   54  120 1    
   107   55   56 1    
   108   55   57 1    
   109   55  121 1    
   110   56  122 1    
   111   56  123 1    
   112   56  124 1    
   113   57   58 2    
   114   57   59 am   BACKBONE|DICT|INTERRES
   115   59   60 1    
   116   59  125 1    
   117   60   61 1    
   118   60   62 1    
   119   60  126 1    
   120   61  127 1    
   121   61  128 1    
   122   61  129 1    
   123   62   63 2    
   124   62   64 am   BACKBONE|DICT|INTERRES
   125   64   65 1    
   126   64  130 1    
   127   65   66 1    
   128   65   69 1    
   129   65  131 1    
   130   66   67 am   BACKBONE|DICT|INTERRES
   131   66   68 2    
   132   67  132 1    
   133   67  133 1    
   134   69   70 1    
   135   69  134 1    
   136   69  135 1    
   137   70   71 1    
   138   71  136 1    
   139   71  137 1    
@<TRIPOS>SUBSTRUCTURE
     1 UNK         1 GROUP             0       ****    0 ROOT    
