@<TRIPOS>MOLECULE
3R136
137   139    1
SMALL
USER_CHARGES


@<TRIPOS>ATOM
      1 CA         28.8669   18.4392    0.9232 C.3       0 UNK        -0.1979 
      2 C          28.5196   19.9100    0.7459 C.2       0 UNK         0.4864 
      3 O          28.4751   20.3953   -0.3856 O.2       0 UNK        -0.5359 
      4 N          28.2837   20.6227    1.8545 N.am      1 UNK        -0.4318 
      5 CA         27.8915   22.0350    1.8745 C.3       1 UNK         0.0824 
      6 C6         28.0725   22.6649    3.2789 C.3       12 UNK        -0.0944 
      7 S7         29.7881   22.5436    3.9078 S.3       12 UNK        -0.2672 
      8 C8         30.3412   24.2850    3.9458 C.3       12 UNK         0.0333 
      9 C9         31.4066   24.6219    2.9047 C.ar      12 UNK        -0.0807 
     10 C10        32.4995   25.4165    3.2658 C.ar      12 UNK        -0.0894 
     11 C11        33.4653   25.7782    2.3202 C.ar      12 UNK        -0.0804 
     12 C12        33.3361   25.3305    1.0014 C.ar      12 UNK        -0.0824 
     13 C13        32.2574   24.5245    0.6275 C.ar      12 UNK        -0.0762 
     14 C14        31.2980   24.1791    1.5826 C.ar      12 UNK        -0.0782 
     15 C15        32.1477   23.9987   -0.7977 C.3       12 UNK         0.0230 
     16 S16        31.3591   25.1937   -1.9239 S.3       12 UNK        -0.2608 
     17 C17        29.6207   25.1502   -1.3731 C.3       12 UNK        -0.0989 
     18 CA         29.2037   26.4861   -0.6851 C.3       5 UNK         0.0716 
     19 N          28.2200   27.2140   -1.4856 N.am      5 UNK        -0.4135 
     20 C          28.1196   28.5482   -1.5596 C.2       4 UNK         0.5031 
     21 O          28.9079   29.3206   -1.0121 O.2       4 UNK        -0.5229 
     22 CA         26.9447   29.1334   -2.3661 C.3       4 UNK         0.0329 
     23 CB         27.4249   29.6008   -3.7498 C.3       4 UNK        -0.2001 
     24 N          25.8249   28.2041   -2.5370 N.am      4 UNK        -0.4303 
     25 C          24.9910   27.8165   -1.5619 C.2       3 UNK         0.5044 
     26 O          25.0462   28.2398   -0.4065 O.2       3 UNK        -0.5152 
     27 CA         23.9165   26.7703   -1.9243 C.3       3 UNK         0.0319 
     28 CB         23.8677   26.4010   -3.4258 C.3       3 UNK        -0.2001 
     29 N          24.0337   25.5534   -1.1109 N.am      3 UNK        -0.4354 
     30 C          25.1187   24.7761   -0.9784 C.2       2 UNK         0.4964 
     31 O          26.2029   24.9962   -1.5265 O.2       2 UNK        -0.5047 
     32 CA         24.9395   23.5063   -0.1376 C.3       2 UNK         0.0288 
     33 CB         24.4564   22.3527   -1.0426 C.3       2 UNK        -0.2113 
     34 N          26.2133   23.1790    0.4997 N.am      2 UNK        -0.4145 
     35 C          26.4401   22.1952    1.3771 C.2       1 UNK         0.5006 
     36 O          25.5654   21.4380    1.8080 O.2       1 UNK        -0.5103 
     37 C          28.6090   26.3128    0.7247 C.2       5 UNK         0.5055 
     38 O          28.1327   25.2318    1.0719 O.2       5 UNK        -0.5220 
     39 N          28.6018   27.4076    1.4889 N.am      6 UNK        -0.4450 
     40 CA         28.1222   27.4901    2.8632 C.3       6 UNK         0.0367 
     41 CB         26.9203   28.4473    2.9122 C.3       6 UNK        -0.1929 
     42 C          29.2619   28.0129    3.7436 C.2       6 UNK         0.5070 
     43 O          30.1635   28.6885    3.2427 O.2       6 UNK        -0.5237 
     44 N          29.1911   27.7173    5.0467 N.am      7 UNK        -0.4739 
     45 CA         30.1532   28.1586    6.0592 C.3       7 UNK         0.0276 
     46 CB         30.0630   27.2210    7.2770 C.3       7 UNK        -0.1927 
     47 C          29.9415   29.6395    6.4303 C.2       7 UNK         0.5013 
     48 O          29.4575   29.9393    7.5237 O.2       7 UNK        -0.5193 
     49 N          30.2769   30.5330    5.4959 N.am      8 UNK        -0.4253 
     50 CA         30.1862   31.9830    5.6258 C.3       8 UNK         0.0242 
     51 CB         28.8314   32.4554    5.0678 C.3       8 UNK        -0.2000 
     52 C          31.3530   32.6376    4.8755 C.2       8 UNK         0.4948 
     53 O          31.9916   31.9894    4.0404 O.2       8 UNK        -0.5275 
     54 N          31.5916   33.9227    5.1754 N.am      9 UNK        -0.4246 
     55 CA         32.6569   34.7714    4.6297 C.3       9 UNK         0.0261 
     56 CB         32.4130   35.0702    3.1315 C.3       9 UNK        -0.1959 
     57 C          34.0466   34.1864    4.9444 C.2       9 UNK         0.5033 
     58 O          34.4523   34.2106    6.1076 O.2       9 UNK        -0.5390 
     59 N          34.7429   33.6711    3.9231 N.am      10 UNK        -0.4215 
     60 CA         36.0351   32.9951    4.0561 C.3       10 UNK         0.0240 
     61 CB         36.7096   32.9213    2.6761 C.3       10 UNK        -0.1982 
     62 C          35.9271   31.5892    4.6758 C.2       10 UNK         0.4970 
     63 O          36.9034   31.1255    5.2671 O.2       10 UNK        -0.4916 
     64 N          34.7699   30.9345    4.5209 N.am      11 UNK        -0.4279 
     65 CA         34.4817   29.6054    5.0731 C.3       11 UNK         0.1003 
     66 C          33.9093   29.6886    6.5145 C.2       11 UNK         0.5709 
     67 N          33.9378   28.5861    7.2515 N.am      11 UNK        -0.7358 
     68 O          33.4198   30.7207    6.9683 O.2       11 UNK        -0.4999 
     69 C69        33.5433   28.8045    4.1354 C.3       12 UNK        -0.0954 
     70 S70        34.3289   28.4105    2.5369 S.3       12 UNK        -0.2268 
     71 C71        34.6638   26.6297    2.7192 C.3       12 UNK         0.0203 
     72 H72        28.8841   18.1481    1.9734 H         1 UNK         0.0888 
     73 H73        29.8484   18.2315    0.4980 H         1 UNK         0.0888 
     74 H74        28.1340   17.8165    0.4108 H         1 UNK         0.0888 
     75 H75        28.3257   20.1720    2.7570 H         1 UNK         0.3017 
     76 H76        28.5373   22.5625    1.1730 H         1 UNK         0.0873 
     77 H77        27.4218   22.1678    4.0010 H         1 UNK         0.0745 
     78 H78        27.7536   23.7079    3.2681 H         1 UNK         0.0745 
     79 H79        29.4981   24.9585    3.8094 H         1 UNK         0.0705 
     80 H80        30.7228   24.4846    4.9482 H         1 UNK         0.0705 
     81 H81        32.5960   25.7549    4.2873 H         1 UNK         0.1334 
     82 H82        34.0814   25.6022    0.2661 H         1 UNK         0.1417 
     83 H83        30.4633   23.5609    1.2957 H         1 UNK         0.1562 
     84 H84        31.5981   23.0561   -0.8198 H         1 UNK         0.0748 
     85 H85        33.1451   23.7708   -1.1769 H         1 UNK         0.0748 
     86 H86        29.4769   24.2736   -0.7418 H         1 UNK         0.0940 
     87 H87        29.0024   24.9512   -2.2503 H         1 UNK         0.0940 
     88 H88        30.0931   27.1089   -0.5629 H         1 UNK         0.0703 
     89 H89        27.4759   26.6451   -1.8739 H         1 UNK         0.3081 
     90 H90        26.5794   30.0056   -1.8195 H         1 UNK         0.0719 
     91 H91        27.7928   28.7694   -4.3526 H         1 UNK         0.0809 
     92 H92        26.6243   30.0910   -4.3041 H         1 UNK         0.0809 
     93 H93        28.2395   30.3208   -3.6573 H         1 UNK         0.0809 
     94 H94        25.7063   27.7981   -3.4540 H         1 UNK         0.2990 
     95 H95        22.9581   27.2237   -1.6667 H         1 UNK         0.0690 
     96 H96        23.6980   27.2815   -4.0472 H         1 UNK         0.0788 
     97 H97        23.0479   25.7117   -3.6285 H         1 UNK         0.0788 
     98 H98        24.7865   25.9204   -3.7646 H         1 UNK         0.0788 
     99 H99        23.1990   25.2947   -0.6033 H         1 UNK         0.2993 
    100 H100       24.2027   23.6966    0.6454 H         1 UNK         0.0949 
    101 H101       23.5492   22.6291   -1.5818 H         1 UNK         0.0767 
    102 H102       25.2095   22.0868   -1.7857 H         1 UNK         0.0767 
    103 H103       24.2220   21.4561   -0.4693 H         1 UNK         0.0767 
    104 H104       26.9663   23.8298    0.2847 H         1 UNK         0.3013 
    105 H105       29.0537   28.2451    1.1410 H         1 UNK         0.3121 
    106 H106       27.8126   26.5084    3.2264 H         1 UNK         0.0774 
    107 H107       26.1114   28.0963    2.2708 H         1 UNK         0.0815 
    108 H108       27.1911   29.4525    2.5859 H         1 UNK         0.0815 
    109 H109       26.5211   28.5278    3.9239 H         1 UNK         0.0815 
    110 H110       28.3910   27.2030    5.3870 H         1 UNK         0.2987 
    111 H111       31.1602   28.0648    5.6518 H         1 UNK         0.0949 
    112 H112       29.0708   27.2368    7.7299 H         1 UNK         0.0806 
    113 H113       30.2910   26.1909    7.0028 H         1 UNK         0.0806 
    114 H114       30.7778   27.5151    8.0468 H         1 UNK         0.0806 
    115 H115       30.6508   30.2022    4.6104 H         1 UNK         0.3010 
    116 H116       30.2679   32.2609    6.6791 H         1 UNK         0.0829 
    117 H117       28.7216   32.1986    4.0132 H         1 UNK         0.0813 
    118 H118       28.0009   32.0022    5.6095 H         1 UNK         0.0813 
    119 H119       28.7210   33.5369    5.1549 H         1 UNK         0.0813 
    120 H120       31.0258   34.3539    5.8933 H         1 UNK         0.3038 
    121 H121       32.6011   35.7216    5.1634 H         1 UNK         0.0769 
    122 H122       32.3920   34.1679    2.5196 H         1 UNK         0.0811 
    123 H123       33.1855   35.7277    2.7302 H         1 UNK         0.0811 
    124 H124       31.4596   35.5793    2.9894 H         1 UNK         0.0811 
    125 H125       34.3198   33.6778    3.0061 H         1 UNK         0.3204 
    126 H126       36.6693   33.5948    4.7127 H         1 UNK         0.0748 
    127 H127       36.8581   33.9148    2.2524 H         1 UNK         0.0771 
    128 H128       37.6916   32.4511    2.7469 H         1 UNK         0.0771 
    129 H129       36.1196   32.3372    1.9684 H         1 UNK         0.0771 
    130 H130       33.9771   31.4102    4.1044 H         1 UNK         0.2980 
    131 H131       35.4197   29.0514    5.1474 H         1 UNK         0.0545 
    132 H132       33.5744   28.6202    8.1907 H         1 UNK         0.3459 
    133 H133       34.3482   27.7334    6.9054 H         1 UNK         0.3459 
    134 H134       33.2297   27.8761    4.6088 H         1 UNK         0.0616 
    135 H135       32.6311   29.3668    3.9365 H         1 UNK         0.0616 
    136 H136       35.5193   26.3748    2.0918 H         1 UNK         0.0634 
    137 H137       34.9684   26.4093    3.7434 H         1 UNK         0.0634 
@<TRIPOS>BOND
     1    1    2 1    
     2    1   72 1    
     3    1   73 1    
     4    1   74 1    
     5    2    3 2    
     6    2    4 am   BACKBONE|DICT|INTERRES
     7    4    5 1    
     8    4   75 1    
     9    5    6 1    
    10    5   35 1    
    11    5   76 1    
    12    6    7 1    
    13    6   77 1    
    14    6   78 1    
    15    7    8 1    
    16    8    9 1    
    17    8   79 1    
    18    8   80 1    
    19    9   10 ar   
    20    9   14 ar   
    21   10   11 ar   
    22   10   81 1    
    23   11   12 ar   
    24   11   71 1    
    25   12   13 ar   
    26   12   82 1    
    27   13   14 ar   
    28   13   15 1    
    29   14   83 1    
    30   15   16 1    
    31   15   84 1    
    32   15   85 1    
    33   16   17 1    
    34   17   18 1    
    35   17   86 1    
    36   17   87 1    
    37   18   19 1    
    38   18   37 1    
    39   18   88 1    
    40   19   20 am   BACKBONE|DICT|INTERRES
    41   19   89 1    
    42   20   21 2    
    43   20   22 1    
    44   22   23 1    
    45   22   24 1    
    46   22   90 1    
    47   23   91 1    
    48   23   92 1    
    49   23   93 1    
    50   24   25 am   BACKBONE|DICT|INTERRES
    51   24   94 1    
    52   25   26 2    
    53   25   27 1    
    54   27   28 1    
    55   27   29 1    
    56   27   95 1    
    57   28   96 1    
    58   28   97 1    
    59   28   98 1    
    60   29   30 am   BACKBONE|DICT|INTERRES
    61   29   99 1    
    62   30   31 2    
    63   30   32 1    
    64   32   33 1    
    65   32   34 1    
    66   32  100 1    
    67   33  101 1    
    68   33  102 1    
    69   33  103 1    
    70   34   35 am   BACKBONE|DICT|INTERRES
    71   34  104 1    
    72   35   36 2    
    73   37   38 2    
    74   37   39 am   BACKBONE|DICT|INTERRES
    75   39   40 1    
    76   39  105 1    
    77   40   41 1    
    78   40   42 1    
    79   40  106 1    
    80   41  107 1    
    81   41  108 1    
    82   41  109 1    
    83   42   43 2    
    84   42   44 am   BACKBONE|DICT|INTERRES
    85   44   45 1    
    86   44  110 1    
    87   45   46 1    
    88   45   47 1    
    89   45  111 1    
    90   46  112 1    
    91   46  113 1    
    92   46  114 1    
    93   47   48 2    
    94   47   49 am   BACKBONE|DICT|INTERRES
    95   49   50 1    
    96   49  115 1    
    97   50   51 1    
    98   50   52 1    
    99   50  116 1    
   100   51  117 1    
   101   51  118 1    
   102   51  119 1    
   103   52   53 2    
   104   52   54 am   BACKBONE|DICT|INTERRES
   105   54   55 1    
   106   54  120 1    
   107   55   56 1    
   108   55   57 1    
   109   55  121 1    
   110   56  122 1    
   111   56  123 1    
   112   56  124 1    
   113   57   58 2    
   114   57   59 am   BACKBONE|DICT|INTERRES
   115   59   60 1    
   116   59  125 1    
   117   60   61 1    
   118   60   62 1    
   119   60  126 1    
   120   61  127 1    
   121   61  128 1    
   122   61  129 1    
   123   62   63 2    
   124   62   64 am   BACKBONE|DICT|INTERRES
   125   64   65 1    
   126   64  130 1    
   127   65   66 1    
   128   65   69 1    
   129   65  131 1    
   130   66   67 am   BACKBONE|DICT|INTERRES
   131   66   68 2    
   132   67  132 1    
   133   67  133 1    
   134   69   70 1    
   135   69  134 1    
   136   69  135 1    
   137   70   71 1    
   138   71  136 1    
   139   71  137 1    
@<TRIPOS>SUBSTRUCTURE
     1 UNK         1 GROUP             0       ****    0 ROOT    
