@<TRIPOS>MOLECULE
3R136
137   139    1
SMALL
USER_CHARGES


@<TRIPOS>ATOM
      1 CA         26.1033   18.9103    2.7456 C.3       0 UNK        -0.1979 
      2 C          26.8872   18.8689    1.4418 C.2       0 UNK         0.4864 
      3 O          26.7483   17.9141    0.6749 O.2       0 UNK        -0.5359 
      4 N          27.7131   19.8921    1.1924 N.am      1 UNK        -0.4318 
      5 CA         28.4860   20.0692   -0.0403 C.3       1 UNK         0.0824 
      6 C6         29.8229   20.8088    0.2382 C.3       12 UNK        -0.0944 
      7 S7         29.6200   22.5371    0.7889 S.3       12 UNK        -0.2672 
      8 C8         30.2260   22.4643    2.4993 C.3       12 UNK         0.0333 
      9 C9         30.0912   23.8242    3.1649 C.ar      12 UNK        -0.0807 
     10 C10        31.0344   24.8229    2.9104 C.ar      12 UNK        -0.0894 
     11 C11        30.9105   26.0844    3.4988 C.ar      12 UNK        -0.0804 
     12 C12        29.8401   26.3397    4.3637 C.ar      12 UNK        -0.0824 
     13 C13        28.8871   25.3472    4.6246 C.ar      12 UNK        -0.0762 
     14 C14        29.0195   24.0923    4.0212 C.ar      12 UNK        -0.0782 
     15 C15        27.7203   25.6064    5.5695 C.3       12 UNK         0.0230 
     16 S16        26.1641   25.9119    4.6656 S.3       12 UNK        -0.2608 
     17 C17        26.1081   27.7342    4.6071 C.3       12 UNK        -0.0989 
     18 CA         26.8368   28.3073    3.3698 C.3       5 UNK         0.0716 
     19 N          26.2311   27.8865    2.0982 N.am      5 UNK        -0.4135 
     20 C          26.8427   27.9591    0.9088 C.2       4 UNK         0.5031 
     21 O          27.9594   28.4580    0.7441 O.2       4 UNK        -0.5229 
     22 CA         26.0435   27.4762   -0.3094 C.3       4 UNK         0.0329 
     23 CB         25.3305   28.6615   -0.9815 C.3       4 UNK        -0.2001 
     24 N          26.9416   26.8462   -1.2758 N.am      4 UNK        -0.4303 
     25 C          27.3557   25.5769   -1.1945 C.2       3 UNK         0.5044 
     26 O          26.9330   24.7692   -0.3643 O.2       3 UNK        -0.5152 
     27 CA         28.4540   25.1634   -2.1878 C.3       3 UNK         0.0319 
     28 CB         29.8418   25.5344   -1.6365 C.3       3 UNK        -0.2001 
     29 N          28.4129   23.7267   -2.4686 N.am      3 UNK        -0.4354 
     30 C          27.5474   23.1452   -3.3120 C.2       2 UNK         0.4964 
     31 O          26.7252   23.7727   -3.9816 O.2       2 UNK        -0.5047 
     32 CA         27.6149   21.6124   -3.4670 C.3       2 UNK         0.0288 
     33 CB         28.3792   21.2375   -4.7481 C.3       2 UNK        -0.2113 
     34 N          28.2306   20.9260   -2.3270 N.am      2 UNK        -0.4145 
     35 C          27.6341   20.7494   -1.1394 C.2       1 UNK         0.5006 
     36 O          26.4765   21.1096   -0.9044 O.2       1 UNK        -0.5103 
     37 C          27.0516   29.8309    3.4988 C.2       5 UNK         0.5055 
     38 O          27.7077   30.2570    4.4476 O.2       5 UNK        -0.5220 
     39 N          26.5878   30.6293    2.5252 N.am      6 UNK        -0.4450 
     40 CA         26.9737   32.0344    2.3459 C.3       6 UNK         0.0367 
     41 CB         26.1981   32.6239    1.1573 C.3       6 UNK        -0.1929 
     42 C          28.4931   32.2257    2.1468 C.2       6 UNK         0.5070 
     43 O          29.0184   33.2882    2.4786 O.2       6 UNK        -0.5237 
     44 N          29.1795   31.1816    1.6570 N.am      7 UNK        -0.4739 
     45 CA         30.6353   31.1106    1.5353 C.3       7 UNK         0.0276 
     46 CB         30.9968   29.9774    0.5601 C.3       7 UNK        -0.1927 
     47 C          31.3772   30.9251    2.8737 C.2       7 UNK         0.5013 
     48 O          32.6078   30.9642    2.8623 O.2       7 UNK        -0.5193 
     49 N          30.6685   30.7239    4.0001 N.am      8 UNK        -0.4253 
     50 CA         31.2570   30.5025    5.3322 C.3       8 UNK         0.0242 
     51 CB         30.1540   30.2403    6.3684 C.3       8 UNK        -0.2000 
     52 C          32.1844   31.6287    5.8183 C.2       8 UNK         0.4948 
     53 O          33.1263   31.3521    6.5609 O.2       8 UNK        -0.5275 
     54 N          31.9428   32.8608    5.3485 N.am      9 UNK        -0.4246 
     55 CA         32.8139   34.0201    5.5566 C.3       9 UNK         0.0261 
     56 CB         32.1133   35.2777    5.0174 C.3       9 UNK        -0.1959 
     57 C          34.2116   33.8676    4.9223 C.2       9 UNK         0.5033 
     58 O          35.1506   34.5099    5.3952 O.2       9 UNK        -0.5390 
     59 N          34.3283   33.0315    3.8808 N.am      10 UNK        -0.4215 
     60 CA         35.5859   32.6821    3.2261 C.3       10 UNK         0.0240 
     61 CB         35.3914   32.6808    1.6998 C.3       10 UNK        -0.1982 
     62 C          36.0992   31.3182    3.7104 C.2       10 UNK         0.4970 
     63 O          37.2865   31.2113    4.0206 O.2       10 UNK        -0.4916 
     64 N          35.2223   30.3015    3.7487 N.am      11 UNK        -0.4279 
     65 CA         35.5943   28.9207    4.1033 C.3       11 UNK         0.1003 
     66 C          35.8938   28.6769    5.6120 C.2       11 UNK         0.5709 
     67 N          35.4238   29.5118    6.5312 N.am      11 UNK        -0.7358 
     68 O          36.5890   27.7216    5.9506 O.2       11 UNK        -0.4999 
     69 C69        34.6594   27.8606    3.4436 C.3       12 UNK        -0.0954 
     70 S70        33.2353   27.2643    4.4272 S.3       12 UNK        -0.2268 
     71 C71        31.9239   27.1698    3.1711 C.3       12 UNK         0.0203 
     72 H72        25.0333   18.9092    2.5396 H         1 UNK         0.0888 
     73 H73        26.3354   18.0348    3.3514 H         1 UNK         0.0888 
     74 H74        26.3344   19.7993    3.3324 H         1 UNK         0.0888 
     75 H75        27.7442   20.6739    1.8302 H         1 UNK         0.3017 
     76 H76        28.7439   19.0797   -0.4245 H         1 UNK         0.0873 
     77 H77        30.3953   20.2559    0.9849 H         1 UNK         0.0745 
     78 H78        30.4532   20.8120   -0.6524 H         1 UNK         0.0745 
     79 H79        31.2711   22.1507    2.5033 H         1 UNK         0.0705 
     80 H80        29.6697   21.7072    3.0541 H         1 UNK         0.0705 
     81 H81        31.8579   24.6204    2.2390 H         1 UNK         0.1334 
     82 H82        29.7478   27.3125    4.8258 H         1 UNK         0.1417 
     83 H83        28.2813   23.3260    4.2156 H         1 UNK         0.1562 
     84 H84        27.9439   26.4343    6.2438 H         1 UNK         0.0748 
     85 H85        27.5809   24.7337    6.2093 H         1 UNK         0.0748 
     86 H86        26.5337   28.1236    5.5343 H         1 UNK         0.0940 
     87 H87        25.0626   28.0478    4.6095 H         1 UNK         0.0940 
     88 H88        27.8452   27.8935    3.3724 H         1 UNK         0.0703 
     89 H89        25.3120   27.4721    2.1576 H         1 UNK         0.3081 
     90 H90        25.2913   26.7528    0.0136 H         1 UNK         0.0719 
     91 H91        24.6228   29.1328   -0.2983 H         1 UNK         0.0809 
     92 H92        24.7656   28.3387   -1.8563 H         1 UNK         0.0809 
     93 H93        26.0352   29.4299   -1.3032 H         1 UNK         0.0809 
     94 H94        27.3814   27.4609   -1.9454 H         1 UNK         0.2990 
     95 H95        28.3011   25.7054   -3.1239 H         1 UNK         0.0690 
     96 H96        30.6354   25.2442   -2.3251 H         1 UNK         0.0788 
     97 H97        30.0378   25.0574   -0.6759 H         1 UNK         0.0788 
     98 H98        29.9253   26.6110   -1.4812 H         1 UNK         0.0788 
     99 H99        29.0069   23.1400   -1.9013 H         1 UNK         0.2993 
    100 H100       26.5876   21.2544   -3.5681 H         1 UNK         0.0949 
    101 H101       27.9270   21.7058   -5.6237 H         1 UNK         0.0767 
    102 H102       29.4202   21.5608   -4.7072 H         1 UNK         0.0767 
    103 H103       28.3668   20.1605   -4.9174 H         1 UNK         0.0767 
    104 H104       29.1761   20.5955   -2.4565 H         1 UNK         0.3013 
    105 H105       26.0544   30.2073    1.7803 H         1 UNK         0.3121 
    106 H106       26.6903   32.5772    3.2501 H         1 UNK         0.0774 
    107 H107       26.4470   33.6764    1.0137 H         1 UNK         0.0815 
    108 H108       26.4293   32.1048    0.2261 H         1 UNK         0.0815 
    109 H109       25.1212   32.5671    1.3170 H         1 UNK         0.0815 
    110 H110       28.6709   30.3425    1.3960 H         1 UNK         0.2987 
    111 H111       30.9887   32.0515    1.1080 H         1 UNK         0.0949 
    112 H112       30.5495   30.1413   -0.4204 H         1 UNK         0.0806 
    113 H113       32.0760   29.9099    0.4147 H         1 UNK         0.0806 
    114 H114       30.6549   29.0073    0.9223 H         1 UNK         0.0806 
    115 H115       29.6554   30.6990    3.9482 H         1 UNK         0.3010 
    116 H116       31.8707   29.6049    5.2672 H         1 UNK         0.0829 
    117 H117       29.5805   29.3472    6.1227 H         1 UNK         0.0813 
    118 H118       30.5779   30.0831    7.3613 H         1 UNK         0.0813 
    119 H119       29.4593   31.0781    6.4385 H         1 UNK         0.0813 
    120 H120       31.1410   32.9931    4.7478 H         1 UNK         0.3038 
    121 H121       32.9563   34.1396    6.6328 H         1 UNK         0.0769 
    122 H122       31.9194   35.2044    3.9464 H         1 UNK         0.0811 
    123 H123       32.7270   36.1655    5.1777 H         1 UNK         0.0811 
    124 H124       31.1616   35.4493    5.5206 H         1 UNK         0.0811 
    125 H125       33.5141   32.5034    3.5813 H         1 UNK         0.3204 
    126 H126       36.3493   33.4272    3.4605 H         1 UNK         0.0748 
    127 H127       36.3232   32.4341    1.1890 H         1 UNK         0.0771 
    128 H128       34.6433   31.9540    1.3813 H         1 UNK         0.0771 
    129 H129       35.0764   33.6613    1.3423 H         1 UNK         0.0771 
    130 H130       34.2577   30.4581    3.4674 H         1 UNK         0.2980 
    131 H131       36.5609   28.7623    3.6198 H         1 UNK         0.0545 
    132 H132       34.7867   30.2623    6.2888 H         1 UNK         0.3459 
    133 H133       35.6396   29.3405    7.4996 H         1 UNK         0.3459 
    134 H134       35.2499   26.9737    3.2078 H         1 UNK         0.0616 
    135 H135       34.3084   28.2311    2.4792 H         1 UNK         0.0616 
    136 H136       32.3601   26.9799    2.1892 H         1 UNK         0.0634 
    137 H137       31.4206   28.1312    3.1024 H         1 UNK         0.0634 
@<TRIPOS>BOND
     1    1    2 1    
     2    1   72 1    
     3    1   73 1    
     4    1   74 1    
     5    2    3 2    
     6    2    4 am   BACKBONE|DICT|INTERRES
     7    4    5 1    
     8    4   75 1    
     9    5    6 1    
    10    5   35 1    
    11    5   76 1    
    12    6    7 1    
    13    6   77 1    
    14    6   78 1    
    15    7    8 1    
    16    8    9 1    
    17    8   79 1    
    18    8   80 1    
    19    9   10 ar   
    20    9   14 ar   
    21   10   11 ar   
    22   10   81 1    
    23   11   12 ar   
    24   11   71 1    
    25   12   13 ar   
    26   12   82 1    
    27   13   14 ar   
    28   13   15 1    
    29   14   83 1    
    30   15   16 1    
    31   15   84 1    
    32   15   85 1    
    33   16   17 1    
    34   17   18 1    
    35   17   86 1    
    36   17   87 1    
    37   18   19 1    
    38   18   37 1    
    39   18   88 1    
    40   19   20 am   BACKBONE|DICT|INTERRES
    41   19   89 1    
    42   20   21 2    
    43   20   22 1    
    44   22   23 1    
    45   22   24 1    
    46   22   90 1    
    47   23   91 1    
    48   23   92 1    
    49   23   93 1    
    50   24   25 am   BACKBONE|DICT|INTERRES
    51   24   94 1    
    52   25   26 2    
    53   25   27 1    
    54   27   28 1    
    55   27   29 1    
    56   27   95 1    
    57   28   96 1    
    58   28   97 1    
    59   28   98 1    
    60   29   30 am   BACKBONE|DICT|INTERRES
    61   29   99 1    
    62   30   31 2    
    63   30   32 1    
    64   32   33 1    
    65   32   34 1    
    66   32  100 1    
    67   33  101 1    
    68   33  102 1    
    69   33  103 1    
    70   34   35 am   BACKBONE|DICT|INTERRES
    71   34  104 1    
    72   35   36 2    
    73   37   38 2    
    74   37   39 am   BACKBONE|DICT|INTERRES
    75   39   40 1    
    76   39  105 1    
    77   40   41 1    
    78   40   42 1    
    79   40  106 1    
    80   41  107 1    
    81   41  108 1    
    82   41  109 1    
    83   42   43 2    
    84   42   44 am   BACKBONE|DICT|INTERRES
    85   44   45 1    
    86   44  110 1    
    87   45   46 1    
    88   45   47 1    
    89   45  111 1    
    90   46  112 1    
    91   46  113 1    
    92   46  114 1    
    93   47   48 2    
    94   47   49 am   BACKBONE|DICT|INTERRES
    95   49   50 1    
    96   49  115 1    
    97   50   51 1    
    98   50   52 1    
    99   50  116 1    
   100   51  117 1    
   101   51  118 1    
   102   51  119 1    
   103   52   53 2    
   104   52   54 am   BACKBONE|DICT|INTERRES
   105   54   55 1    
   106   54  120 1    
   107   55   56 1    
   108   55   57 1    
   109   55  121 1    
   110   56  122 1    
   111   56  123 1    
   112   56  124 1    
   113   57   58 2    
   114   57   59 am   BACKBONE|DICT|INTERRES
   115   59   60 1    
   116   59  125 1    
   117   60   61 1    
   118   60   62 1    
   119   60  126 1    
   120   61  127 1    
   121   61  128 1    
   122   61  129 1    
   123   62   63 2    
   124   62   64 am   BACKBONE|DICT|INTERRES
   125   64   65 1    
   126   64  130 1    
   127   65   66 1    
   128   65   69 1    
   129   65  131 1    
   130   66   67 am   BACKBONE|DICT|INTERRES
   131   66   68 2    
   132   67  132 1    
   133   67  133 1    
   134   69   70 1    
   135   69  134 1    
   136   69  135 1    
   137   70   71 1    
   138   71  136 1    
   139   71  137 1    
@<TRIPOS>SUBSTRUCTURE
     1 UNK         1 GROUP             0       ****    0 ROOT    
