@<TRIPOS>MOLECULE
3R136
137   139    1
SMALL
USER_CHARGES


@<TRIPOS>ATOM
      1 CA         25.0319   20.9777    0.6663 C.3       0 UNK        -0.1979 
      2 C          26.4968   20.6906    0.3718 C.2       0 UNK         0.4864 
      3 O          26.8170   20.2040   -0.7134 O.2       0 UNK        -0.5359 
      4 N          27.3847   20.9858    1.3316 N.am      1 UNK        -0.4318 
      5 CA         28.8394   20.8176    1.2218 C.3       1 UNK         0.0824 
      6 C6         29.5096   20.9776    2.6091 C.3       12 UNK        -0.0944 
      7 S7         31.2656   20.4780    2.6355 S.3       12 UNK        -0.2672 
      8 C8         31.8917   21.3802    4.0898 C.3       12 UNK         0.0333 
      9 C9         31.7910   22.8914    3.9280 C.ar      12 UNK        -0.0807 
     10 C10        32.6371   23.5659    3.0424 C.ar      12 UNK        -0.0894 
     11 C11        32.5504   24.9540    2.8984 C.ar      12 UNK        -0.0804 
     12 C12        31.6010   25.6663    3.6361 C.ar      12 UNK        -0.0824 
     13 C13        30.7607   25.0048    4.5368 C.ar      12 UNK        -0.0762 
     14 C14        30.8625   23.6183    4.6800 C.ar      12 UNK        -0.0782 
     15 C15        29.7695   25.7897    5.3844 C.3       12 UNK         0.0230 
     16 S16        28.0321   25.4154    4.9768 S.3       12 UNK        -0.2608 
     17 C17        27.9034   25.9495    3.2373 C.3       12 UNK        -0.0989 
     18 CA         27.8947   27.4881    3.0460 C.3       5 UNK         0.0716 
     19 N          28.3867   27.8520    1.7131 N.am      5 UNK        -0.4135 
     20 C          28.7976   29.0788    1.3568 C.2       4 UNK         0.5031 
     21 O          28.8736   30.0169    2.1481 O.2       4 UNK        -0.5229 
     22 CA         29.1282   29.3359   -0.1258 C.3       4 UNK         0.0329 
     23 CB         30.6400   29.5032   -0.3186 C.3       4 UNK        -0.2001 
     24 N          28.6398   28.3047   -1.0424 N.am      4 UNK        -0.4303 
     25 C          27.3500   28.0316   -1.2847 C.2       3 UNK         0.5044 
     26 O          26.4133   28.6451   -0.7735 O.2       3 UNK        -0.5152 
     27 CA         27.0696   26.8161   -2.1870 C.3       3 UNK         0.0319 
     28 CB         27.0256   27.2368   -3.6644 C.3       3 UNK        -0.2001 
     29 N          28.0485   25.7340   -2.0091 N.am      3 UNK        -0.4354 
     30 C          28.2380   25.0770   -0.8566 C.2       2 UNK         0.4964 
     31 O          27.5973   25.3025    0.1728 O.2       2 UNK        -0.5047 
     32 CA         29.3686   24.0486   -0.8161 C.3       2 UNK         0.0288 
     33 CB         30.6882   24.7136   -0.3797 C.3       2 UNK        -0.2113 
     34 N          28.9904   23.0167    0.1415 N.am      2 UNK        -0.4145 
     35 C          29.4521   21.7614    0.1610 C.2       1 UNK         0.5006 
     36 O          30.2945   21.3305   -0.6297 O.2       1 UNK        -0.5103 
     37 C          26.5262   28.1350    3.3779 C.2       5 UNK         0.5055 
     38 O          26.1536   28.1875    4.5504 O.2       5 UNK        -0.5220 
     39 N          25.8168   28.6631    2.3656 N.am      6 UNK        -0.4450 
     40 CA         24.6519   29.5359    2.5470 C.3       6 UNK         0.0367 
     41 CB         23.8592   29.6000    1.2317 C.3       6 UNK        -0.1929 
     42 C          25.0310   30.9574    3.0166 C.2       6 UNK         0.5070 
     43 O          24.1567   31.6801    3.4963 O.2       6 UNK        -0.5237 
     44 N          26.3072   31.3360    2.8677 N.am      7 UNK        -0.4739 
     45 CA         26.9013   32.5845    3.3404 C.3       7 UNK         0.0276 
     46 CB         27.5410   33.3058    2.1366 C.3       7 UNK        -0.1927 
     47 C          27.9166   32.2622    4.4540 C.2       7 UNK         0.5013 
     48 O          27.8053   31.2228    5.1085 O.2       7 UNK        -0.5193 
     49 N          28.9072   33.1404    4.6585 N.am      8 UNK        -0.4253 
     50 CA         29.9622   33.0164    5.6729 C.3       8 UNK         0.0242 
     51 CB         30.5202   34.4198    5.9783 C.3       8 UNK        -0.2000 
     52 C          31.0732   32.0101    5.2934 C.2       8 UNK         0.4948 
     53 O          32.2561   32.3150    5.4606 O.2       8 UNK        -0.5275 
     54 N          30.6833   30.8365    4.7762 N.am      9 UNK        -0.4246 
     55 CA         31.4860   29.6789    4.3507 C.3       9 UNK         0.0261 
     56 CB         32.2307   29.0444    5.5407 C.3       9 UNK        -0.1959 
     57 C          32.4490   29.9200    3.1737 C.2       9 UNK         0.5033 
     58 O          32.5544   29.0500    2.3107 O.2       9 UNK        -0.5390 
     59 N          33.1486   31.0615    3.1664 N.am      10 UNK        -0.4215 
     60 CA         34.1178   31.5746    2.1849 C.3       10 UNK         0.0240 
     61 CB         33.4580   31.7971    0.8118 C.3       10 UNK        -0.1982 
     62 C          35.4135   30.7552    2.0284 C.2       10 UNK         0.4970 
     63 O          36.4740   31.3569    1.8545 O.2       10 UNK        -0.4916 
     64 N          35.3217   29.4218    2.0799 N.am      11 UNK        -0.4279 
     65 CA         36.4447   28.4822    1.9375 C.3       11 UNK         0.1003 
     66 C          37.4781   28.4820    3.1047 C.2       11 UNK         0.5709 
     67 N          37.1977   29.1022    4.2451 N.am      11 UNK        -0.7358 
     68 O          38.5615   27.9190    2.9642 O.2       11 UNK        -0.4999 
     69 C69        35.9520   27.0530    1.5836 C.3       12 UNK        -0.0954 
     70 S70        34.9556   26.2697    2.8982 S.3       12 UNK        -0.2268 
     71 C71        33.5025   25.6913    1.9714 C.3       12 UNK         0.0203 
     72 H72        24.8896   21.3968    1.6623 H         1 UNK         0.0888 
     73 H73        24.6360   21.6877   -0.0594 H         1 UNK         0.0888 
     74 H74        24.4486   20.0598    0.5987 H         1 UNK         0.0888 
     75 H75        27.0517   21.3682    2.2053 H         1 UNK         0.3017 
     76 H76        29.0161   19.7950    0.8805 H         1 UNK         0.0873 
     77 H77        29.4064   22.0071    2.9532 H         1 UNK         0.0745 
     78 H78        28.9912   20.3615    3.3456 H         1 UNK         0.0745 
     79 H79        31.3489   21.0464    4.9756 H         1 UNK         0.0705 
     80 H80        32.9353   21.1063    4.2511 H         1 UNK         0.0705 
     81 H81        33.3682   23.0094    2.4719 H         1 UNK         0.1334 
     82 H82        31.5388   26.7389    3.5210 H         1 UNK         0.1417 
     83 H83        30.2123   23.1068    5.3771 H         1 UNK         0.1562 
     84 H84        29.9433   26.8622    5.2965 H         1 UNK         0.0748 
     85 H85        29.9376   25.5476    6.4347 H         1 UNK         0.0748 
     86 H86        27.0090   25.5006    2.8011 H         1 UNK         0.0940 
     87 H87        28.7408   25.5033    2.6983 H         1 UNK         0.0940 
     88 H88        28.6019   27.9202    3.7544 H         1 UNK         0.0703 
     89 H89        28.3067   27.1330    1.0041 H         1 UNK         0.3081 
     90 H90        28.6454   30.2767   -0.3990 H         1 UNK         0.0719 
     91 H91        31.1863   28.5939   -0.0641 H         1 UNK         0.0809 
     92 H92        30.8882   29.7749   -1.3446 H         1 UNK         0.0809 
     93 H93        31.0127   30.2987    0.3258 H         1 UNK         0.0809 
     94 H94        29.3387   27.7426   -1.5055 H         1 UNK         0.2990 
     95 H95        26.0872   26.4251   -1.9131 H         1 UNK         0.0690 
     96 H96        26.7429   26.4022   -4.3064 H         1 UNK         0.0788 
     97 H97        27.9894   27.6145   -4.0082 H         1 UNK         0.0788 
     98 H98        26.2905   28.0274   -3.8223 H         1 UNK         0.0788 
     99 H99        28.6173   25.4981   -2.8103 H         1 UNK         0.2993 
    100 H100       29.4820   23.6015   -1.8063 H         1 UNK         0.0949 
    101 H101       31.5004   23.9884   -0.3240 H         1 UNK         0.0767 
    102 H102       30.9936   25.4869   -1.0854 H         1 UNK         0.0767 
    103 H103       30.5961   25.1818    0.6015 H         1 UNK         0.0767 
    104 H104       28.2598   23.2951    0.7842 H         1 UNK         0.3013 
    105 H105       26.1609   28.5687    1.4167 H         1 UNK         0.3121 
    106 H106       24.0065   29.0985    3.3117 H         1 UNK         0.0774 
    107 H107       24.4373   30.0698    0.4351 H         1 UNK         0.0815 
    108 H108       22.9453   30.1824    1.3559 H         1 UNK         0.0815 
    109 H109       23.5666   28.6060    0.8931 H         1 UNK         0.0815 
    110 H110       26.9825   30.6523    2.5434 H         1 UNK         0.2987 
    111 H111       26.1375   33.2327    3.7749 H         1 UNK         0.0949 
    112 H112       28.3980   32.7560    1.7441 H         1 UNK         0.0806 
    113 H113       26.8242   33.4223    1.3235 H         1 UNK         0.0806 
    114 H114       27.8796   34.3079    2.4013 H         1 UNK         0.0806 
    115 H115       28.9578   33.9515    4.0592 H         1 UNK         0.3010 
    116 H116       29.5086   32.6393    6.5922 H         1 UNK         0.0829 
    117 H117       31.0146   34.8551    5.1089 H         1 UNK         0.0813 
    118 H118       29.7305   35.1022    6.2936 H         1 UNK         0.0813 
    119 H119       31.2523   34.3847    6.7863 H         1 UNK         0.0813 
    120 H120       29.6800   30.7207    4.6606 H         1 UNK         0.3038 
    121 H121       30.7580   28.9500    3.9952 H         1 UNK         0.0769 
    122 H122       32.7697   28.1472    5.2324 H         1 UNK         0.0811 
    123 H123       32.9626   29.7265    5.9741 H         1 UNK         0.0811 
    124 H124       31.5386   28.7513    6.3300 H         1 UNK         0.0811 
    125 H125       32.9914   31.6637    3.9756 H         1 UNK         0.3204 
    126 H126       34.4139   32.5530    2.5666 H         1 UNK         0.0748 
    127 H127       34.1172   32.3644    0.1534 H         1 UNK         0.0771 
    128 H128       33.2445   30.8522    0.3122 H         1 UNK         0.0771 
    129 H129       32.5262   32.3559    0.8997 H         1 UNK         0.0771 
    130 H130       34.3966   29.0157    2.1998 H         1 UNK         0.2980 
    131 H131       37.0112   28.8282    1.0708 H         1 UNK         0.0545 
    132 H132       36.3116   29.5639    4.3678 H         1 UNK         0.3459 
    133 H133       37.8766   29.0995    4.9896 H         1 UNK         0.3459 
    134 H134       35.3669   27.0912    0.6635 H         1 UNK         0.0616 
    135 H135       36.7991   26.4008    1.3642 H         1 UNK         0.0616 
    136 H136       33.8242   25.0369    1.1598 H         1 UNK         0.0634 
    137 H137       32.9972   26.5393    1.5072 H         1 UNK         0.0634 
@<TRIPOS>BOND
     1    1    2 1    
     2    1   72 1    
     3    1   73 1    
     4    1   74 1    
     5    2    3 2    
     6    2    4 am   BACKBONE|DICT|INTERRES
     7    4    5 1    
     8    4   75 1    
     9    5    6 1    
    10    5   35 1    
    11    5   76 1    
    12    6    7 1    
    13    6   77 1    
    14    6   78 1    
    15    7    8 1    
    16    8    9 1    
    17    8   79 1    
    18    8   80 1    
    19    9   10 ar   
    20    9   14 ar   
    21   10   11 ar   
    22   10   81 1    
    23   11   12 ar   
    24   11   71 1    
    25   12   13 ar   
    26   12   82 1    
    27   13   14 ar   
    28   13   15 1    
    29   14   83 1    
    30   15   16 1    
    31   15   84 1    
    32   15   85 1    
    33   16   17 1    
    34   17   18 1    
    35   17   86 1    
    36   17   87 1    
    37   18   19 1    
    38   18   37 1    
    39   18   88 1    
    40   19   20 am   BACKBONE|DICT|INTERRES
    41   19   89 1    
    42   20   21 2    
    43   20   22 1    
    44   22   23 1    
    45   22   24 1    
    46   22   90 1    
    47   23   91 1    
    48   23   92 1    
    49   23   93 1    
    50   24   25 am   BACKBONE|DICT|INTERRES
    51   24   94 1    
    52   25   26 2    
    53   25   27 1    
    54   27   28 1    
    55   27   29 1    
    56   27   95 1    
    57   28   96 1    
    58   28   97 1    
    59   28   98 1    
    60   29   30 am   BACKBONE|DICT|INTERRES
    61   29   99 1    
    62   30   31 2    
    63   30   32 1    
    64   32   33 1    
    65   32   34 1    
    66   32  100 1    
    67   33  101 1    
    68   33  102 1    
    69   33  103 1    
    70   34   35 am   BACKBONE|DICT|INTERRES
    71   34  104 1    
    72   35   36 2    
    73   37   38 2    
    74   37   39 am   BACKBONE|DICT|INTERRES
    75   39   40 1    
    76   39  105 1    
    77   40   41 1    
    78   40   42 1    
    79   40  106 1    
    80   41  107 1    
    81   41  108 1    
    82   41  109 1    
    83   42   43 2    
    84   42   44 am   BACKBONE|DICT|INTERRES
    85   44   45 1    
    86   44  110 1    
    87   45   46 1    
    88   45   47 1    
    89   45  111 1    
    90   46  112 1    
    91   46  113 1    
    92   46  114 1    
    93   47   48 2    
    94   47   49 am   BACKBONE|DICT|INTERRES
    95   49   50 1    
    96   49  115 1    
    97   50   51 1    
    98   50   52 1    
    99   50  116 1    
   100   51  117 1    
   101   51  118 1    
   102   51  119 1    
   103   52   53 2    
   104   52   54 am   BACKBONE|DICT|INTERRES
   105   54   55 1    
   106   54  120 1    
   107   55   56 1    
   108   55   57 1    
   109   55  121 1    
   110   56  122 1    
   111   56  123 1    
   112   56  124 1    
   113   57   58 2    
   114   57   59 am   BACKBONE|DICT|INTERRES
   115   59   60 1    
   116   59  125 1    
   117   60   61 1    
   118   60   62 1    
   119   60  126 1    
   120   61  127 1    
   121   61  128 1    
   122   61  129 1    
   123   62   63 2    
   124   62   64 am   BACKBONE|DICT|INTERRES
   125   64   65 1    
   126   64  130 1    
   127   65   66 1    
   128   65   69 1    
   129   65  131 1    
   130   66   67 am   BACKBONE|DICT|INTERRES
   131   66   68 2    
   132   67  132 1    
   133   67  133 1    
   134   69   70 1    
   135   69  134 1    
   136   69  135 1    
   137   70   71 1    
   138   71  136 1    
   139   71  137 1    
@<TRIPOS>SUBSTRUCTURE
     1 UNK         1 GROUP             0       ****    0 ROOT    
