@<TRIPOS>MOLECULE
3R136
137   139    1
SMALL
USER_CHARGES


@<TRIPOS>ATOM
      1 CA         28.0331   18.9530    0.1851 C.3       0 UNK        -0.1979 
      2 C          28.2360   20.0213    1.2550 C.2       0 UNK         0.4864 
      3 O          28.2760   19.6900    2.4382 O.2       0 UNK        -0.5359 
      4 N          28.3647   21.3090    0.9079 N.am      1 UNK        -0.4318 
      5 CA         28.3245   21.8862   -0.4451 C.3       1 UNK         0.0824 
      6 C6         29.7107   22.4011   -0.9204 C.3       12 UNK        -0.0944 
      7 S7         30.9907   21.1009   -0.9456 S.3       12 UNK        -0.2672 
      8 C8         32.4973   22.0540   -0.5377 C.3       12 UNK         0.0333 
      9 C9         32.5579   22.6566    0.8691 C.ar      12 UNK        -0.0807 
     10 C10        33.5323   23.6236    1.1355 C.ar      12 UNK        -0.0894 
     11 C11        33.6403   24.2059    2.4020 C.ar      12 UNK        -0.0804 
     12 C12        32.7545   23.8227    3.4123 C.ar      12 UNK        -0.0824 
     13 C13        31.7630   22.8714    3.1598 C.ar      12 UNK        -0.0762 
     14 C14        31.6883   22.2743    1.8988 C.ar      12 UNK        -0.0782 
     15 C15        30.7656   22.4893    4.2450 C.3       12 UNK         0.0230 
     16 S16        29.7175   23.8931    4.7555 S.3       12 UNK        -0.2608 
     17 C17        28.9418   24.4290    3.1894 C.3       12 UNK        -0.0989 
     18 CA         29.4398   25.8213    2.7222 C.3       5 UNK         0.0716 
     19 N          29.1297   26.0595    1.3098 N.am      5 UNK        -0.4135 
     20 C          29.7630   26.9510    0.5335 C.2       4 UNK         0.5031 
     21 O          30.7309   27.6150    0.8994 O.2       4 UNK        -0.5229 
     22 CA         29.2069   27.1674   -0.8845 C.3       4 UNK         0.0329 
     23 CB         29.9016   26.2409   -1.8934 C.3       4 UNK        -0.2001 
     24 N          27.7539   26.9869   -0.9574 N.am      4 UNK        -0.4303 
     25 C          26.8748   27.8752   -0.4681 C.2       3 UNK         0.5044 
     26 O          27.2024   28.9419    0.0480 O.2       3 UNK        -0.5152 
     27 CA         25.3795   27.5161   -0.5308 C.3       3 UNK         0.0319 
     28 CB         24.7515   28.0698   -1.8195 C.3       3 UNK        -0.2001 
     29 N          25.0884   26.0844   -0.4293 N.am      3 UNK        -0.4354 
     30 C          25.4652   25.2693    0.5655 C.2       2 UNK         0.4964 
     31 O          26.1471   25.6294    1.5274 O.2       2 UNK        -0.5047 
     32 CA         25.0579   23.7876    0.4504 C.3       2 UNK         0.0288 
     33 CB         24.0716   23.4895   -0.7031 C.3       2 UNK        -0.2113 
     34 N          26.2238   22.9010    0.3515 N.am      2 UNK        -0.4145 
     35 C          27.2436   22.9876   -0.5208 C.2       1 UNK         0.5006 
     36 O          27.3523   23.8923   -1.3518 O.2       1 UNK        -0.5103 
     37 C          28.8705   26.9603    3.5948 C.2       5 UNK         0.5055 
     38 O          29.5540   27.4431    4.4974 O.2       5 UNK        -0.5220 
     39 N          27.6311   27.3773    3.2954 N.am      6 UNK        -0.4450 
     40 CA         26.8934   28.4233    4.0092 C.3       6 UNK         0.0367 
     41 CB         25.4104   28.3363    3.6142 C.3       6 UNK        -0.1929 
     42 C          27.4229   29.8546    3.7897 C.2       6 UNK         0.5070 
     43 O          27.0060   30.7562    4.5181 O.2       6 UNK        -0.5237 
     44 N          28.2964   30.0575    2.7939 N.am      7 UNK        -0.4739 
     45 CA         28.9266   31.3346    2.4563 C.3       7 UNK         0.0276 
     46 CB         29.6510   31.1940    1.1053 C.3       7 UNK        -0.1927 
     47 C          29.8908   31.8025    3.5596 C.2       7 UNK         0.5013 
     48 O          31.0675   31.4368    3.5384 O.2       7 UNK        -0.5193 
     49 N          29.3848   32.6112    4.5007 N.am      8 UNK        -0.4253 
     50 CA         30.1102   33.1348    5.6672 C.3       8 UNK         0.0242 
     51 CB         29.1426   33.9586    6.5322 C.3       8 UNK        -0.2000 
     52 C          31.3677   33.9610    5.3349 C.2       8 UNK         0.4948 
     53 O          32.2817   34.0238    6.1571 O.2       8 UNK        -0.5275 
     54 N          31.4030   34.5593    4.1365 N.am      9 UNK        -0.4246 
     55 CA         32.5598   35.2705    3.5876 C.3       9 UNK         0.0261 
     56 CB         32.0843   36.1746    2.4376 C.3       9 UNK        -0.1959 
     57 C          33.6899   34.3378    3.1047 C.2       9 UNK         0.5033 
     58 O          34.8001   34.8241    2.8815 O.2       9 UNK        -0.5390 
     59 N          33.3980   33.0420    2.9303 N.am      10 UNK        -0.4215 
     60 CA         34.3269   32.0136    2.4748 C.3       10 UNK         0.0240 
     61 CB         33.8525   31.4762    1.1077 C.3       10 UNK        -0.1982 
     62 C          34.4291   30.9394    3.5674 C.2       10 UNK         0.4970 
     63 O          35.1511   31.1461    4.5438 O.2       10 UNK        -0.4916 
     64 N          33.7238   29.8179    3.3844 N.am      11 UNK        -0.4279 
     65 CA         33.6972   28.6701    4.3023 C.3       11 UNK         0.1003 
     66 C          32.9544   28.9252    5.6446 C.2       11 UNK         0.5709 
     67 N          32.0784   29.9160    5.7433 N.am      11 UNK        -0.7358 
     68 O          33.1948   28.2174    6.6199 O.2       11 UNK        -0.4999 
     69 C69        33.1415   27.4089    3.5967 C.3       12 UNK        -0.0954 
     70 S70        34.1688   26.9092    2.1725 S.3       12 UNK        -0.2268 
     71 C71        34.7162   25.2476    2.6696 C.3       12 UNK         0.0203 
     72 H72        28.0361   17.9590    0.6319 H         1 UNK         0.0888 
     73 H73        27.0770   19.0886   -0.3195 H         1 UNK         0.0888 
     74 H74        28.8321   18.9837   -0.5549 H         1 UNK         0.0888 
     75 H75        28.4878   21.9799    1.6509 H         1 UNK         0.3017 
     76 H76        27.9945   21.1398   -1.1679 H         1 UNK         0.0873 
     77 H77        29.6452   22.7971   -1.9355 H         1 UNK         0.0745 
     78 H78        30.0417   23.2275   -0.2893 H         1 UNK         0.0745 
     79 H79        32.6054   22.8495   -1.2770 H         1 UNK         0.0705 
     80 H80        33.3582   21.3966   -0.6646 H         1 UNK         0.0705 
     81 H81        34.2140   23.9269    0.3522 H         1 UNK         0.1334 
     82 H82        32.8223   24.2727    4.3930 H         1 UNK         0.1417 
     83 H83        30.9422   21.5144    1.7249 H         1 UNK         0.1562 
     84 H84        31.3099   22.1205    5.1154 H         1 UNK         0.0748 
     85 H85        30.1230   21.6702    3.9173 H         1 UNK         0.0748 
     86 H86        27.8567   24.4151    3.3106 H         1 UNK         0.0940 
     87 H87        29.1620   23.6875    2.4227 H         1 UNK         0.0940 
     88 H88        30.5274   25.8360    2.8230 H         1 UNK         0.0703 
     89 H89        28.2913   25.6223    0.9521 H         1 UNK         0.3081 
     90 H90        29.4367   28.1970   -1.1687 H         1 UNK         0.0719 
     91 H91        29.6955   25.1926   -1.6870 H         1 UNK         0.0809 
     92 H92        29.5777   26.4510   -2.9128 H         1 UNK         0.0809 
     93 H93        30.9842   26.3724   -1.8629 H         1 UNK         0.0809 
     94 H94        27.4134   26.1124   -1.3417 H         1 UNK         0.2990 
     95 H95        24.8932   28.0028    0.3159 H         1 UNK         0.0690 
     96 H96        25.1673   27.5933   -2.7083 H         1 UNK         0.0788 
     97 H97        24.9299   29.1424   -1.9111 H         1 UNK         0.0788 
     98 H98        23.6715   27.9218   -1.8316 H         1 UNK         0.0788 
     99 H99        24.5606   25.6796   -1.1891 H         1 UNK         0.2993 
    100 H100       24.5558   23.5439    1.3881 H         1 UNK         0.0949 
    101 H101       24.5130   23.6735   -1.6836 H         1 UNK         0.0767 
    102 H102       23.7546   22.4466   -0.6811 H         1 UNK         0.0767 
    103 H103       23.1672   24.0942   -0.6205 H         1 UNK         0.0767 
    104 H104       26.2390   22.1346    1.0098 H         1 UNK         0.3013 
    105 H105       27.1208   26.8851    2.5661 H         1 UNK         0.3121 
    106 H106       26.9732   28.2146    5.0781 H         1 UNK         0.0774 
    107 H107       24.8100   29.0419    4.1901 H         1 UNK         0.0815 
    108 H108       25.2645   28.5706    2.5601 H         1 UNK         0.0815 
    109 H109       25.0049   27.3410    3.7978 H         1 UNK         0.0815 
    110 H110       28.5582   29.2638    2.2268 H         1 UNK         0.2987 
    111 H111       28.1427   32.0860    2.3405 H         1 UNK         0.0949 
    112 H112       30.3870   30.3892    1.1232 H         1 UNK         0.0806 
    113 H113       28.9486   30.9842    0.2989 H         1 UNK         0.0806 
    114 H114       30.1775   32.1128    0.8436 H         1 UNK         0.0806 
    115 H115       28.3918   32.7999    4.4704 H         1 UNK         0.3010 
    116 H116       30.4400   32.2753    6.2534 H         1 UNK         0.0829 
    117 H117       29.6419   34.3373    7.4254 H         1 UNK         0.0813 
    118 H118       28.7483   34.8187    5.9896 H         1 UNK         0.0813 
    119 H119       28.2982   33.3558    6.8675 H         1 UNK         0.0813 
    120 H120       30.5968   34.4681    3.5356 H         1 UNK         0.3038 
    121 H121       32.9766   35.9064    4.3717 H         1 UNK         0.0769 
    122 H122       32.9133   36.7527    2.0268 H         1 UNK         0.0811 
    123 H123       31.3329   36.8878    2.7769 H         1 UNK         0.0811 
    124 H124       31.6550   35.5954    1.6190 H         1 UNK         0.0811 
    125 H125       32.4778   32.7006    3.1963 H         1 UNK         0.3204 
    126 H126       35.3302   32.4247    2.3451 H         1 UNK         0.0748 
    127 H127       34.4813   30.6522    0.7669 H         1 UNK         0.0771 
    128 H128       32.8216   31.1217    1.1370 H         1 UNK         0.0771 
    129 H129       33.9063   32.2549    0.3467 H         1 UNK         0.0771 
    130 H130       33.1286   29.7432    2.5731 H         1 UNK         0.2980 
    131 H131       34.7329   28.4593    4.5764 H         1 UNK         0.0545 
    132 H132       31.8334   30.4663    4.9251 H         1 UNK         0.3459 
    133 H133       31.6071   30.0661    6.6193 H         1 UNK         0.3459 
    134 H134       33.0687   26.5793    4.3001 H         1 UNK         0.0616 
    135 H135       32.1270   27.5936    3.2414 H         1 UNK         0.0616 
    136 H136       35.0063   25.2486    3.7214 H         1 UNK         0.0634 
    137 H137       35.6165   24.9950    2.1076 H         1 UNK         0.0634 
@<TRIPOS>BOND
     1    1    2 1    
     2    1   72 1    
     3    1   73 1    
     4    1   74 1    
     5    2    3 2    
     6    2    4 am   BACKBONE|DICT|INTERRES
     7    4    5 1    
     8    4   75 1    
     9    5    6 1    
    10    5   35 1    
    11    5   76 1    
    12    6    7 1    
    13    6   77 1    
    14    6   78 1    
    15    7    8 1    
    16    8    9 1    
    17    8   79 1    
    18    8   80 1    
    19    9   10 ar   
    20    9   14 ar   
    21   10   11 ar   
    22   10   81 1    
    23   11   12 ar   
    24   11   71 1    
    25   12   13 ar   
    26   12   82 1    
    27   13   14 ar   
    28   13   15 1    
    29   14   83 1    
    30   15   16 1    
    31   15   84 1    
    32   15   85 1    
    33   16   17 1    
    34   17   18 1    
    35   17   86 1    
    36   17   87 1    
    37   18   19 1    
    38   18   37 1    
    39   18   88 1    
    40   19   20 am   BACKBONE|DICT|INTERRES
    41   19   89 1    
    42   20   21 2    
    43   20   22 1    
    44   22   23 1    
    45   22   24 1    
    46   22   90 1    
    47   23   91 1    
    48   23   92 1    
    49   23   93 1    
    50   24   25 am   BACKBONE|DICT|INTERRES
    51   24   94 1    
    52   25   26 2    
    53   25   27 1    
    54   27   28 1    
    55   27   29 1    
    56   27   95 1    
    57   28   96 1    
    58   28   97 1    
    59   28   98 1    
    60   29   30 am   BACKBONE|DICT|INTERRES
    61   29   99 1    
    62   30   31 2    
    63   30   32 1    
    64   32   33 1    
    65   32   34 1    
    66   32  100 1    
    67   33  101 1    
    68   33  102 1    
    69   33  103 1    
    70   34   35 am   BACKBONE|DICT|INTERRES
    71   34  104 1    
    72   35   36 2    
    73   37   38 2    
    74   37   39 am   BACKBONE|DICT|INTERRES
    75   39   40 1    
    76   39  105 1    
    77   40   41 1    
    78   40   42 1    
    79   40  106 1    
    80   41  107 1    
    81   41  108 1    
    82   41  109 1    
    83   42   43 2    
    84   42   44 am   BACKBONE|DICT|INTERRES
    85   44   45 1    
    86   44  110 1    
    87   45   46 1    
    88   45   47 1    
    89   45  111 1    
    90   46  112 1    
    91   46  113 1    
    92   46  114 1    
    93   47   48 2    
    94   47   49 am   BACKBONE|DICT|INTERRES
    95   49   50 1    
    96   49  115 1    
    97   50   51 1    
    98   50   52 1    
    99   50  116 1    
   100   51  117 1    
   101   51  118 1    
   102   51  119 1    
   103   52   53 2    
   104   52   54 am   BACKBONE|DICT|INTERRES
   105   54   55 1    
   106   54  120 1    
   107   55   56 1    
   108   55   57 1    
   109   55  121 1    
   110   56  122 1    
   111   56  123 1    
   112   56  124 1    
   113   57   58 2    
   114   57   59 am   BACKBONE|DICT|INTERRES
   115   59   60 1    
   116   59  125 1    
   117   60   61 1    
   118   60   62 1    
   119   60  126 1    
   120   61  127 1    
   121   61  128 1    
   122   61  129 1    
   123   62   63 2    
   124   62   64 am   BACKBONE|DICT|INTERRES
   125   64   65 1    
   126   64  130 1    
   127   65   66 1    
   128   65   69 1    
   129   65  131 1    
   130   66   67 am   BACKBONE|DICT|INTERRES
   131   66   68 2    
   132   67  132 1    
   133   67  133 1    
   134   69   70 1    
   135   69  134 1    
   136   69  135 1    
   137   70   71 1    
   138   71  136 1    
   139   71  137 1    
@<TRIPOS>SUBSTRUCTURE
     1 UNK         1 GROUP             0       ****    0 ROOT    
