@<TRIPOS>MOLECULE
3R136
137   139    1
SMALL
USER_CHARGES


@<TRIPOS>ATOM
      1 CA         31.1247   24.3165   -4.5889 C.3       0 UNK        -0.1979 
      2 C          31.4559   23.4922   -3.3470 C.2       0 UNK         0.4864 
      3 O          32.2544   22.5609   -3.4378 O.2       0 UNK        -0.5359 
      4 N          30.8868   23.7923   -2.1714 N.am      1 UNK        -0.4318 
      5 CA         29.8587   24.8073   -1.9171 C.3       1 UNK         0.0824 
      6 C6         29.8038   25.2227   -0.4233 C.3       12 UNK        -0.0944 
      7 S7         31.3993   25.8543    0.2007 S.3       12 UNK        -0.2672 
      8 C8         32.0461   24.4185    1.1211 C.3       12 UNK         0.0333 
      9 C9         31.5283   24.3766    2.5518 C.ar      12 UNK        -0.0807 
     10 C10        32.2635   24.9776    3.5779 C.ar      12 UNK        -0.0894 
     11 C11        31.7934   24.9589    4.8940 C.ar      12 UNK        -0.0804 
     12 C12        30.5778   24.3329    5.1828 C.ar      12 UNK        -0.0824 
     13 C13        29.8396   23.7175    4.1680 C.ar      12 UNK        -0.0762 
     14 C14        30.3259   23.7308    2.8576 C.ar      12 UNK        -0.0782 
     15 C15        28.5134   23.0417    4.4847 C.3       12 UNK         0.0230 
     16 S16        27.0974   23.9827    3.8311 S.3       12 UNK        -0.2608 
     17 C17        27.2236   25.5535    4.7560 C.3       12 UNK        -0.0989 
     18 CA         27.7959   26.7010    3.8873 C.3       5 UNK         0.0716 
     19 N          26.9811   26.9368    2.6957 N.am      5 UNK        -0.4135 
     20 C          27.2603   27.7851    1.7007 C.2       4 UNK         0.5031 
     21 O          28.2840   28.4741    1.6557 O.2       4 UNK        -0.5229 
     22 CA         26.2180   27.8655    0.5672 C.3       4 UNK         0.0329 
     23 CB         26.6921   28.7127   -0.6268 C.3       4 UNK        -0.2001 
     24 N          25.8426   26.5461    0.0576 N.am      4 UNK        -0.4303 
     25 C          24.9860   25.6780    0.6104 C.2       3 UNK         0.5044 
     26 O          24.4258   25.8842    1.6878 O.2       3 UNK        -0.5152 
     27 CA         24.7445   24.3436   -0.1298 C.3       3 UNK         0.0319 
     28 CB         23.2404   24.0568   -0.3175 C.3       3 UNK        -0.2001 
     29 N          25.4798   24.2083   -1.3992 N.am      3 UNK        -0.4354 
     30 C          25.3244   24.9059   -2.5353 C.2       2 UNK         0.4964 
     31 O          24.4523   25.7581   -2.7057 O.2       2 UNK        -0.5047 
     32 CA         26.3907   24.6660   -3.6229 C.3       2 UNK         0.0288 
     33 CB         26.1039   25.4463   -4.9200 C.3       2 UNK        -0.2113 
     34 N          27.7301   25.0272   -3.1399 N.am      2 UNK        -0.4145 
     35 C          28.4920   24.2510   -2.3571 C.2       1 UNK         0.5006 
     36 O          28.1356   23.1403   -1.9548 O.2       1 UNK        -0.5103 
     37 C          27.9230   28.0021    4.7014 C.2       5 UNK         0.5055 
     38 O          26.9003   28.5840    5.0705 O.2       5 UNK        -0.5220 
     39 N          29.1683   28.4420    4.9275 N.am      6 UNK        -0.4450 
     40 CA         29.5593   29.7034    5.5729 C.3       6 UNK         0.0367 
     41 CB         29.0988   29.7471    7.0457 C.3       6 UNK        -0.1929 
     42 C          29.1731   30.9725    4.7837 C.2       6 UNK         0.5070 
     43 O          29.1795   32.0615    5.3605 O.2       6 UNK        -0.5237 
     44 N          28.8700   30.8276    3.4859 N.am      7 UNK        -0.4739 
     45 CA         28.5890   31.9301    2.5648 C.3       7 UNK         0.0276 
     46 CB         27.1222   31.8688    2.1080 C.3       7 UNK        -0.1927 
     47 C          29.5548   31.9000    1.3729 C.2       7 UNK         0.5013 
     48 O          30.1279   32.9380    1.0406 O.2       7 UNK        -0.5193 
     49 N          29.7481   30.7185    0.7685 N.am      8 UNK        -0.4253 
     50 CA         30.6972   30.4995   -0.3293 C.3       8 UNK         0.0242 
     51 CB         30.1920   29.3501   -1.2164 C.3       8 UNK        -0.2000 
     52 C          32.1330   30.2208    0.1510 C.2       8 UNK         0.4948 
     53 O          33.0461   30.2188   -0.6766 O.2       8 UNK        -0.5275 
     54 N          32.3175   29.9899    1.4555 N.am      9 UNK        -0.4246 
     55 CA         33.6008   29.7235    2.0943 C.3       9 UNK         0.0261 
     56 CB         33.7504   28.2091    2.3136 C.3       9 UNK        -0.1959 
     57 C          33.6499   30.4678    3.4303 C.2       9 UNK         0.5033 
     58 O          32.6113   30.6365    4.0745 O.2       9 UNK        -0.5390 
     59 N          34.8592   30.8669    3.8391 N.am      10 UNK        -0.4215 
     60 CA         35.1411   31.4880    5.1324 C.3       10 UNK         0.0240 
     61 CB         36.3472   32.4349    4.9842 C.3       10 UNK        -0.1982 
     62 C          35.3782   30.3902    6.1817 C.2       10 UNK         0.4970 
     63 O          36.5266   30.0961    6.5186 O.2       10 UNK        -0.4916 
     64 N          34.2835   29.7710    6.6365 N.am      11 UNK        -0.4279 
     65 CA         34.2818   28.6429    7.5840 C.3       11 UNK         0.1003 
     66 C          34.7552   28.9876    9.0271 C.2       11 UNK         0.5709 
     67 N          34.8194   30.2534    9.4236 N.am      11 UNK        -0.7358 
     68 O          35.0737   28.0864    9.7993 O.2       11 UNK        -0.4999 
     69 C69        32.9057   27.9290    7.6233 C.3       12 UNK        -0.0954 
     70 S70        32.3107   27.4195    5.9772 S.3       12 UNK        -0.2268 
     71 C71        32.5889   25.6276    6.0026 C.3       12 UNK         0.0203 
     72 H72        31.7225   23.9825   -5.4369 H         1 UNK         0.0888 
     73 H73        30.0763   24.2090   -4.8641 H         1 UNK         0.0888 
     74 H74        31.3454   25.3715   -4.4297 H         1 UNK         0.0888 
     75 H75        31.1090   23.2105   -1.3784 H         1 UNK         0.3017 
     76 H76        30.0879   25.7018   -2.4987 H         1 UNK         0.0873 
     77 H77        29.0657   26.0140   -0.2788 H         1 UNK         0.0745 
     78 H78        29.4704   24.3920    0.1977 H         1 UNK         0.0745 
     79 H79        33.1356   24.4769    1.1266 H         1 UNK         0.0705 
     80 H80        31.7994   23.4925    0.6009 H         1 UNK         0.0705 
     81 H81        33.2001   25.4685    3.3525 H         1 UNK         0.1334 
     82 H82        30.2064   24.3267    6.1986 H         1 UNK         0.1417 
     83 H83        29.7549   23.2456    2.0791 H         1 UNK         0.1562 
     84 H84        28.3900   22.9047    5.5602 H         1 UNK         0.0748 
     85 H85        28.5051   22.0421    4.0476 H         1 UNK         0.0748 
     86 H86        27.8347   25.4025    5.6477 H         1 UNK         0.0940 
     87 H87        26.2260   25.8104    5.1184 H         1 UNK         0.0940 
     88 H88        28.7897   26.4070    3.5417 H         1 UNK         0.0703 
     89 H89        26.1036   26.4303    2.6464 H         1 UNK         0.3081 
     90 H90        25.3318   28.3454    0.9878 H         1 UNK         0.0719 
     91 H91        27.5234   28.2345   -1.1430 H         1 UNK         0.0809 
     92 H92        25.8898   28.8528   -1.3516 H         1 UNK         0.0809 
     93 H93        27.0196   29.7053   -0.3185 H         1 UNK         0.0809 
     94 H94        26.2501   26.2809   -0.8251 H         1 UNK         0.2990 
     95 H95        25.1454   23.5686    0.5253 H         1 UNK         0.0690 
     96 H96        23.0776   23.1012   -0.8157 H         1 UNK         0.0788 
     97 H97        22.7472   24.8314   -0.9052 H         1 UNK         0.0788 
     98 H98        22.7296   24.0099    0.6451 H         1 UNK         0.0788 
     99 H99        26.2656   23.5635   -1.3754 H         1 UNK         0.2993 
    100 H100       26.3707   23.6010   -3.8667 H         1 UNK         0.0949 
    101 H101       26.1151   26.5248   -4.7565 H         1 UNK         0.0767 
    102 H102       26.8393   25.2163   -5.6914 H         1 UNK         0.0767 
    103 H103       25.1236   25.1874   -5.3227 H         1 UNK         0.0767 
    104 H104       28.0708   25.9375   -3.4158 H         1 UNK         0.3013 
    105 H105       29.9408   27.8859    4.5846 H         1 UNK         0.3121 
    106 H106       30.6481   29.7078    5.5833 H         1 UNK         0.0774 
    107 H107       29.5352   30.6001    7.5663 H         1 UNK         0.0815 
    108 H108       28.0157   29.8362    7.1311 H         1 UNK         0.0815 
    109 H109       29.4080   28.8507    7.5831 H         1 UNK         0.0815 
    110 H110       28.8564   29.8939    3.0918 H         1 UNK         0.2987 
    111 H111       28.7406   32.8905    3.0627 H         1 UNK         0.0949 
    112 H112       26.9094   32.6376    1.3640 H         1 UNK         0.0806 
    113 H113       26.8710   30.9052    1.6681 H         1 UNK         0.0806 
    114 H114       26.4457   32.0334    2.9468 H         1 UNK         0.0806 
    115 H115       29.2262   29.9020    1.0846 H         1 UNK         0.3010 
    116 H116       30.7428   31.3987   -0.9476 H         1 UNK         0.0829 
    117 H117       29.2758   29.6337   -1.7323 H         1 UNK         0.0813 
    118 H118       30.9208   29.0906   -1.9855 H         1 UNK         0.0813 
    119 H119       29.9968   28.4487   -0.6350 H         1 UNK         0.0813 
    120 H120       31.5374   30.0865    2.0912 H         1 UNK         0.3038 
    121 H121       34.4185   30.0834    1.4661 H         1 UNK         0.0769 
    122 H122       34.6832   27.9715    2.8263 H         1 UNK         0.0811 
    123 H123       33.7517   27.6703    1.3659 H         1 UNK         0.0811 
    124 H124       32.9329   27.8156    2.9186 H         1 UNK         0.0811 
    125 H125       35.6619   30.6488    3.2655 H         1 UNK         0.3204 
    126 H126       34.2847   32.0865    5.4518 H         1 UNK         0.0748 
    127 H127       36.5918   32.9057    5.9374 H         1 UNK         0.0771 
    128 H128       37.2399   31.9104    4.6407 H         1 UNK         0.0771 
    129 H129       36.1361   33.2347    4.2740 H         1 UNK         0.0771 
    130 H130       33.3851   30.0345    6.2544 H         1 UNK         0.2980 
    131 H131       35.0058   27.9197    7.2036 H         1 UNK         0.0545 
    132 H132       34.5591   30.9990    8.7989 H         1 UNK         0.3459 
    133 H133       35.1310   30.4624   10.3590 H         1 UNK         0.3459 
    134 H134       32.1519   28.5915    8.0527 H         1 UNK         0.0616 
    135 H135       32.9444   27.0554    8.2764 H         1 UNK         0.0616 
    136 H136       32.2970   25.2203    6.9717 H         1 UNK         0.0634 
    137 H137       33.6538   25.4230    5.8830 H         1 UNK         0.0634 
@<TRIPOS>BOND
     1    1    2 1    
     2    1   72 1    
     3    1   73 1    
     4    1   74 1    
     5    2    3 2    
     6    2    4 am   BACKBONE|DICT|INTERRES
     7    4    5 1    
     8    4   75 1    
     9    5    6 1    
    10    5   35 1    
    11    5   76 1    
    12    6    7 1    
    13    6   77 1    
    14    6   78 1    
    15    7    8 1    
    16    8    9 1    
    17    8   79 1    
    18    8   80 1    
    19    9   10 ar   
    20    9   14 ar   
    21   10   11 ar   
    22   10   81 1    
    23   11   12 ar   
    24   11   71 1    
    25   12   13 ar   
    26   12   82 1    
    27   13   14 ar   
    28   13   15 1    
    29   14   83 1    
    30   15   16 1    
    31   15   84 1    
    32   15   85 1    
    33   16   17 1    
    34   17   18 1    
    35   17   86 1    
    36   17   87 1    
    37   18   19 1    
    38   18   37 1    
    39   18   88 1    
    40   19   20 am   BACKBONE|DICT|INTERRES
    41   19   89 1    
    42   20   21 2    
    43   20   22 1    
    44   22   23 1    
    45   22   24 1    
    46   22   90 1    
    47   23   91 1    
    48   23   92 1    
    49   23   93 1    
    50   24   25 am   BACKBONE|DICT|INTERRES
    51   24   94 1    
    52   25   26 2    
    53   25   27 1    
    54   27   28 1    
    55   27   29 1    
    56   27   95 1    
    57   28   96 1    
    58   28   97 1    
    59   28   98 1    
    60   29   30 am   BACKBONE|DICT|INTERRES
    61   29   99 1    
    62   30   31 2    
    63   30   32 1    
    64   32   33 1    
    65   32   34 1    
    66   32  100 1    
    67   33  101 1    
    68   33  102 1    
    69   33  103 1    
    70   34   35 am   BACKBONE|DICT|INTERRES
    71   34  104 1    
    72   35   36 2    
    73   37   38 2    
    74   37   39 am   BACKBONE|DICT|INTERRES
    75   39   40 1    
    76   39  105 1    
    77   40   41 1    
    78   40   42 1    
    79   40  106 1    
    80   41  107 1    
    81   41  108 1    
    82   41  109 1    
    83   42   43 2    
    84   42   44 am   BACKBONE|DICT|INTERRES
    85   44   45 1    
    86   44  110 1    
    87   45   46 1    
    88   45   47 1    
    89   45  111 1    
    90   46  112 1    
    91   46  113 1    
    92   46  114 1    
    93   47   48 2    
    94   47   49 am   BACKBONE|DICT|INTERRES
    95   49   50 1    
    96   49  115 1    
    97   50   51 1    
    98   50   52 1    
    99   50  116 1    
   100   51  117 1    
   101   51  118 1    
   102   51  119 1    
   103   52   53 2    
   104   52   54 am   BACKBONE|DICT|INTERRES
   105   54   55 1    
   106   54  120 1    
   107   55   56 1    
   108   55   57 1    
   109   55  121 1    
   110   56  122 1    
   111   56  123 1    
   112   56  124 1    
   113   57   58 2    
   114   57   59 am   BACKBONE|DICT|INTERRES
   115   59   60 1    
   116   59  125 1    
   117   60   61 1    
   118   60   62 1    
   119   60  126 1    
   120   61  127 1    
   121   61  128 1    
   122   61  129 1    
   123   62   63 2    
   124   62   64 am   BACKBONE|DICT|INTERRES
   125   64   65 1    
   126   64  130 1    
   127   65   66 1    
   128   65   69 1    
   129   65  131 1    
   130   66   67 am   BACKBONE|DICT|INTERRES
   131   66   68 2    
   132   67  132 1    
   133   67  133 1    
   134   69   70 1    
   135   69  134 1    
   136   69  135 1    
   137   70   71 1    
   138   71  136 1    
   139   71  137 1    
@<TRIPOS>SUBSTRUCTURE
     1 UNK         1 GROUP             0       ****    0 ROOT    
