@<TRIPOS>MOLECULE
3R136
137   139    1
SMALL
USER_CHARGES


@<TRIPOS>ATOM
      1 CA         26.0454   25.5454    6.9178 C.3       0 UNK        -0.1979 
      2 C          26.4416   24.7168    5.7046 C.2       0 UNK         0.4864 
      3 O          26.2829   23.4949    5.7236 O.2       0 UNK        -0.5359 
      4 N          26.9612   25.3663    4.6560 N.am      1 UNK        -0.4318 
      5 CA         27.3488   24.7221    3.3963 C.3       1 UNK         0.0824 
      6 C6         28.4732   25.4928    2.6606 C.3       12 UNK        -0.0944 
      7 S7         30.0244   25.4777    3.6206 S.3       12 UNK        -0.2672 
      8 C8         31.0990   24.3788    2.6397 C.3       12 UNK         0.0333 
      9 C9         31.9619   25.1594    1.6569 C.ar      12 UNK        -0.0807 
     10 C10        33.0331   25.9223    2.1333 C.ar      12 UNK        -0.0894 
     11 C11        33.8335   26.6562    1.2543 C.ar      12 UNK        -0.0804 
     12 C12        33.5695   26.6063   -0.1160 C.ar      12 UNK        -0.0824 
     13 C13        32.5150   25.8326   -0.6108 C.ar      12 UNK        -0.0762 
     14 C14        31.7118   25.1105    0.2806 C.ar      12 UNK        -0.0782 
     15 C15        32.2537   25.7900   -2.1125 C.3       12 UNK         0.0230 
     16 S16        30.6607   26.5357   -2.5942 S.3       12 UNK        -0.2608 
     17 C17        30.5506   27.9947   -1.5021 C.3       12 UNK        -0.0989 
     18 CA         29.5556   29.0792   -2.0037 C.3       5 UNK         0.0716 
     19 N          28.2425   28.5059   -2.2951 N.am      5 UNK        -0.4135 
     20 C          27.5576   28.6238   -3.4349 C.2       4 UNK         0.5031 
     21 O          27.9644   29.2377   -4.4241 O.2       4 UNK        -0.5229 
     22 CA         26.1914   27.9059   -3.4740 C.3       4 UNK         0.0329 
     23 CB         25.4316   28.1471   -4.7924 C.3       4 UNK        -0.2001 
     24 N          26.3166   26.4597   -3.2575 N.am      4 UNK        -0.4303 
     25 C          26.5335   25.8659   -2.0768 C.2       3 UNK         0.5044 
     26 O          26.6709   26.4825   -1.0170 O.2       3 UNK        -0.5152 
     27 CA         26.6682   24.3342   -2.0973 C.3       3 UNK         0.0319 
     28 CB         28.1180   23.9234   -2.3996 C.3       3 UNK        -0.2001 
     29 N          26.2728   23.7467   -0.8179 N.am      3 UNK        -0.4354 
     30 C          25.0092   23.6167   -0.3918 C.2       2 UNK         0.4964 
     31 O          24.0227   23.9059   -1.0705 O.2       2 UNK        -0.5047 
     32 CA         24.8093   23.0549    1.0268 C.3       2 UNK         0.0288 
     33 CB         24.6145   21.5302    0.9786 C.3       2 UNK        -0.2113 
     34 N          25.9211   23.3720    1.9296 N.am      2 UNK        -0.4145 
     35 C          26.1025   24.5690    2.5055 C.2       1 UNK         0.5006 
     36 O          25.3366   25.5246    2.3560 O.2       1 UNK        -0.5103 
     37 C          29.3342   30.2224   -0.9888 C.2       5 UNK         0.5055 
     38 O          28.4283   31.0389   -1.1799 O.2       5 UNK        -0.5220 
     39 N          30.1198   30.2459    0.0974 N.am      6 UNK        -0.4450 
     40 CA         29.7807   30.9465    1.3374 C.3       6 UNK         0.0367 
     41 CB         31.0347   31.0183    2.2246 C.3       6 UNK        -0.1929 
     42 C          28.6495   30.1964    2.0667 C.2       6 UNK         0.5070 
     43 O          28.4522   29.0052    1.8206 O.2       6 UNK        -0.5237 
     44 N          27.9342   30.8906    2.9614 N.am      7 UNK        -0.4739 
     45 CA         26.8280   30.3165    3.7409 C.3       7 UNK         0.0276 
     46 CB         26.0851   31.4400    4.4816 C.3       7 UNK        -0.1927 
     47 C          27.2746   29.2228    4.7288 C.2       7 UNK         0.5013 
     48 O          26.5332   28.2668    4.9560 O.2       7 UNK        -0.5193 
     49 N          28.4821   29.3757    5.2775 N.am      8 UNK        -0.4253 
     50 CA         29.1555   28.4261    6.1530 C.3       8 UNK         0.0242 
     51 CB         28.8578   28.7726    7.6219 C.3       8 UNK        -0.2000 
     52 C          30.6542   28.4996    5.8508 C.2       8 UNK         0.4948 
     53 O          31.1148   29.4902    5.2741 O.2       8 UNK        -0.5275 
     54 N          31.3952   27.4629    6.2584 N.am      9 UNK        -0.4246 
     55 CA         32.8093   27.2410    5.9406 C.3       9 UNK         0.0261 
     56 CB         33.1407   25.7520    6.1567 C.3       9 UNK        -0.1959 
     57 C          33.7990   28.1776    6.6652 C.2       9 UNK         0.5033 
     58 O          34.8456   27.7225    7.1303 O.2       9 UNK        -0.5390 
     59 N          33.4987   29.4823    6.6934 N.am      10 UNK        -0.4215 
     60 CA         34.4080   30.5509    7.1272 C.3       10 UNK         0.0240 
     61 CB         33.6385   31.8801    7.1832 C.3       10 UNK        -0.1982 
     62 C          35.6438   30.6729    6.2143 C.2       10 UNK         0.4970 
     63 O          36.7155   31.0597    6.6804 O.2       10 UNK        -0.4916 
     64 N          35.4669   30.2965    4.9429 N.am      11 UNK        -0.4279 
     65 CA         36.5124   30.0647    3.9409 C.3       11 UNK         0.1003 
     66 C          37.3997   28.8067    4.1876 C.2       11 UNK         0.5709 
     67 N          37.1089   27.9449    5.1562 N.am      11 UNK        -0.7358 
     68 O          38.3884   28.6134    3.4845 O.2       11 UNK        -0.4999 
     69 C69        35.9186   30.0874    2.5033 C.3       12 UNK        -0.0954 
     70 S70        34.3655   29.1404    2.3012 S.3       12 UNK        -0.2268 
     71 C71        34.9764   27.5108    1.7801 C.3       12 UNK         0.0203 
     72 H72        24.9688   25.7125    6.9228 H         1 UNK         0.0888 
     73 H73        26.3155   25.0252    7.8363 H         1 UNK         0.0888 
     74 H74        26.5427   26.5143    6.9261 H         1 UNK         0.0888 
     75 H75        26.9700   26.3830    4.6592 H         1 UNK         0.3017 
     76 H76        27.7302   23.7233    3.6213 H         1 UNK         0.0873 
     77 H77        28.1778   26.5298    2.4977 H         1 UNK         0.0745 
     78 H78        28.6578   25.0743    1.6694 H         1 UNK         0.0745 
     79 H79        30.5012   23.6224    2.1292 H         1 UNK         0.0705 
     80 H80        31.7510   23.8338    3.3239 H         1 UNK         0.0705 
     81 H81        33.2356   25.9524    3.1935 H         1 UNK         0.1334 
     82 H82        34.1868   27.1754   -0.7980 H         1 UNK         0.1417 
     83 H83        30.8906   24.5189   -0.1001 H         1 UNK         0.1562 
     84 H84        33.0497   26.3016   -2.6557 H         1 UNK         0.0748 
     85 H85        32.2741   24.7535   -2.4516 H         1 UNK         0.0748 
     86 H86        31.5503   28.4218   -1.4026 H         1 UNK         0.0940 
     87 H87        30.2578   27.6276   -0.5153 H         1 UNK         0.0940 
     88 H88        29.9750   29.5329   -2.9038 H         1 UNK         0.0703 
     89 H89        27.8143   27.9655   -1.5486 H         1 UNK         0.3081 
     90 H90        25.5879   28.3258   -2.6660 H         1 UNK         0.0719 
     91 H91        25.2848   29.2135   -4.9692 H         1 UNK         0.0809 
     92 H92        25.9723   27.7455   -5.6504 H         1 UNK         0.0809 
     93 H93        24.4438   27.6863   -4.7716 H         1 UNK         0.0809 
     94 H94        26.2650   25.8815   -4.0841 H         1 UNK         0.2990 
     95 H95        26.0195   23.9347   -2.8801 H         1 UNK         0.0690 
     96 H96        28.2203   22.8397   -2.4589 H         1 UNK         0.0788 
     97 H97        28.8058   24.2843   -1.6340 H         1 UNK         0.0788 
     98 H98        28.4519   24.3314   -3.3546 H         1 UNK         0.0788 
     99 H99        27.0180   23.5123   -0.1807 H         1 UNK         0.2993 
    100 H100       23.8965   23.5009    1.4289 H         1 UNK         0.0949 
    101 H101       25.4973   21.0202    0.5907 H         1 UNK         0.0767 
    102 H102       24.3999   21.1263    1.9684 H         1 UNK         0.0767 
    103 H103       23.7754   21.2649    0.3337 H         1 UNK         0.0767 
    104 H104       26.5757   22.6272    2.1228 H         1 UNK         0.3013 
    105 H105       30.8211   29.5264    0.1892 H         1 UNK         0.3121 
    106 H106       29.4467   31.9589    1.1002 H         1 UNK         0.0774 
    107 H107       30.8375   31.5739    3.1421 H         1 UNK         0.0815 
    108 H108       31.3765   30.0245    2.5186 H         1 UNK         0.0815 
    109 H109       31.8583   31.5181    1.7145 H         1 UNK         0.0815 
    110 H110       28.1483   31.8658    3.1164 H         1 UNK         0.2987 
    111 H111       26.1314   29.8508    3.0398 H         1 UNK         0.0949 
    112 H112       25.6807   32.1754    3.7859 H         1 UNK         0.0806 
    113 H113       25.2452   31.0405    5.0520 H         1 UNK         0.0806 
    114 H114       26.7364   31.9619    5.1839 H         1 UNK         0.0806 
    115 H115       29.0700   30.1394    4.9674 H         1 UNK         0.3010 
    116 H116       28.8132   27.4130    5.9317 H         1 UNK         0.0829 
    117 H117       29.2135   29.7712    7.8792 H         1 UNK         0.0813 
    118 H118       29.3404   28.0678    8.2999 H         1 UNK         0.0813 
    119 H119       27.7878   28.7369    7.8273 H         1 UNK         0.0813 
    120 H120       30.9371   26.7173    6.7622 H         1 UNK         0.3038 
    121 H121       32.9337   27.4528    4.8772 H         1 UNK         0.0769 
    122 H122       32.4717   25.1072    5.5868 H         1 UNK         0.0811 
    123 H123       33.0635   25.4719    7.2078 H         1 UNK         0.0811 
    124 H124       34.1566   25.5235    5.8312 H         1 UNK         0.0811 
    125 H125       32.6225   29.7582    6.2511 H         1 UNK         0.3204 
    126 H126       34.7598   30.3090    8.1323 H         1 UNK         0.0748 
    127 H127       33.2433   32.1598    6.2055 H         1 UNK         0.0771 
    128 H128       32.8013   31.8239    7.8792 H         1 UNK         0.0771 
    129 H129       34.2851   32.6918    7.5196 H         1 UNK         0.0771 
    130 H130       34.5427   30.0105    4.6555 H         1 UNK         0.2980 
    131 H131       37.2025   30.9074    4.0112 H         1 UNK         0.0545 
    132 H132       37.7107   27.1482    5.2897 H         1 UNK         0.3459 
    133 H133       36.3158   28.0763    5.7722 H         1 UNK         0.3459 
    134 H134       36.6489   29.7682    1.7575 H         1 UNK         0.0616 
    135 H135       35.6835   31.1204    2.2432 H         1 UNK         0.0616 
    136 H136       35.4584   27.0155    2.6242 H         1 UNK         0.0634 
    137 H137       35.7405   27.6330    1.0109 H         1 UNK         0.0634 
@<TRIPOS>BOND
     1    1    2 1    
     2    1   72 1    
     3    1   73 1    
     4    1   74 1    
     5    2    3 2    
     6    2    4 am   BACKBONE|DICT|INTERRES
     7    4    5 1    
     8    4   75 1    
     9    5    6 1    
    10    5   35 1    
    11    5   76 1    
    12    6    7 1    
    13    6   77 1    
    14    6   78 1    
    15    7    8 1    
    16    8    9 1    
    17    8   79 1    
    18    8   80 1    
    19    9   10 ar   
    20    9   14 ar   
    21   10   11 ar   
    22   10   81 1    
    23   11   12 ar   
    24   11   71 1    
    25   12   13 ar   
    26   12   82 1    
    27   13   14 ar   
    28   13   15 1    
    29   14   83 1    
    30   15   16 1    
    31   15   84 1    
    32   15   85 1    
    33   16   17 1    
    34   17   18 1    
    35   17   86 1    
    36   17   87 1    
    37   18   19 1    
    38   18   37 1    
    39   18   88 1    
    40   19   20 am   BACKBONE|DICT|INTERRES
    41   19   89 1    
    42   20   21 2    
    43   20   22 1    
    44   22   23 1    
    45   22   24 1    
    46   22   90 1    
    47   23   91 1    
    48   23   92 1    
    49   23   93 1    
    50   24   25 am   BACKBONE|DICT|INTERRES
    51   24   94 1    
    52   25   26 2    
    53   25   27 1    
    54   27   28 1    
    55   27   29 1    
    56   27   95 1    
    57   28   96 1    
    58   28   97 1    
    59   28   98 1    
    60   29   30 am   BACKBONE|DICT|INTERRES
    61   29   99 1    
    62   30   31 2    
    63   30   32 1    
    64   32   33 1    
    65   32   34 1    
    66   32  100 1    
    67   33  101 1    
    68   33  102 1    
    69   33  103 1    
    70   34   35 am   BACKBONE|DICT|INTERRES
    71   34  104 1    
    72   35   36 2    
    73   37   38 2    
    74   37   39 am   BACKBONE|DICT|INTERRES
    75   39   40 1    
    76   39  105 1    
    77   40   41 1    
    78   40   42 1    
    79   40  106 1    
    80   41  107 1    
    81   41  108 1    
    82   41  109 1    
    83   42   43 2    
    84   42   44 am   BACKBONE|DICT|INTERRES
    85   44   45 1    
    86   44  110 1    
    87   45   46 1    
    88   45   47 1    
    89   45  111 1    
    90   46  112 1    
    91   46  113 1    
    92   46  114 1    
    93   47   48 2    
    94   47   49 am   BACKBONE|DICT|INTERRES
    95   49   50 1    
    96   49  115 1    
    97   50   51 1    
    98   50   52 1    
    99   50  116 1    
   100   51  117 1    
   101   51  118 1    
   102   51  119 1    
   103   52   53 2    
   104   52   54 am   BACKBONE|DICT|INTERRES
   105   54   55 1    
   106   54  120 1    
   107   55   56 1    
   108   55   57 1    
   109   55  121 1    
   110   56  122 1    
   111   56  123 1    
   112   56  124 1    
   113   57   58 2    
   114   57   59 am   BACKBONE|DICT|INTERRES
   115   59   60 1    
   116   59  125 1    
   117   60   61 1    
   118   60   62 1    
   119   60  126 1    
   120   61  127 1    
   121   61  128 1    
   122   61  129 1    
   123   62   63 2    
   124   62   64 am   BACKBONE|DICT|INTERRES
   125   64   65 1    
   126   64  130 1    
   127   65   66 1    
   128   65   69 1    
   129   65  131 1    
   130   66   67 am   BACKBONE|DICT|INTERRES
   131   66   68 2    
   132   67  132 1    
   133   67  133 1    
   134   69   70 1    
   135   69  134 1    
   136   69  135 1    
   137   70   71 1    
   138   71  136 1    
   139   71  137 1    
@<TRIPOS>SUBSTRUCTURE
     1 UNK         1 GROUP             0       ****    0 ROOT    
