@<TRIPOS>MOLECULE
3R136
137   139    1
SMALL
USER_CHARGES


@<TRIPOS>ATOM
      1 CA         33.5178   24.1165   -0.6794 C.3       0 UNK        -0.1979 
      2 C          32.1434   23.9703   -0.0442 C.2       0 UNK         0.4864 
      3 O          31.5358   24.9681    0.3362 O.2       0 UNK        -0.5359 
      4 N          31.6430   22.7332    0.0641 N.am      1 UNK        -0.4318 
      5 CA         30.3382   22.4029    0.6558 C.3       1 UNK         0.0824 
      6 C6         30.2251   20.8897    0.9679 C.3       12 UNK        -0.0944 
      7 S7         31.4995   20.3269    2.1465 S.3       12 UNK        -0.2672 
      8 C8         30.5408   20.1874    3.6883 C.3       12 UNK         0.0333 
      9 C9         30.0682   21.5443    4.1906 C.ar      12 UNK        -0.0807 
     10 C10        30.9605   22.3969    4.8468 C.ar      12 UNK        -0.0894 
     11 C11        30.5403   23.6489    5.3126 C.ar      12 UNK        -0.0804 
     12 C12        29.1995   24.0134    5.1604 C.ar      12 UNK        -0.0824 
     13 C13        28.3017   23.1841    4.4832 C.ar      12 UNK        -0.0762 
     14 C14        28.7429   21.9481    4.0014 C.ar      12 UNK        -0.0782 
     15 C15        26.8548   23.6149    4.2789 C.3       12 UNK         0.0230 
     16 S16        26.7025   24.9594    3.0534 S.3       12 UNK        -0.2608 
     17 C17        26.7791   26.4575    4.0972 C.3       12 UNK        -0.0989 
     18 CA         28.0846   27.2743    3.9075 C.3       5 UNK         0.0716 
     19 N          28.2497   27.7279    2.5242 N.am      5 UNK        -0.4135 
     20 C          29.4175   27.9673    1.9194 C.2       4 UNK         0.5031 
     21 O          30.4947   27.8609    2.5050 O.2       4 UNK        -0.5229 
     22 CA         29.3707   28.4394    0.4507 C.3       4 UNK         0.0329 
     23 CB         30.7662   28.4819   -0.1994 C.3       4 UNK        -0.2001 
     24 N          28.4784   27.6401   -0.3969 N.am      4 UNK        -0.4303 
     25 C          27.1405   27.6636   -0.3899 C.2       3 UNK         0.5044 
     26 O          26.4866   28.3593    0.3888 O.2       3 UNK        -0.5152 
     27 CA         26.3872   26.7700   -1.3945 C.3       3 UNK         0.0319 
     28 CB         26.1459   27.5239   -2.7169 C.3       3 UNK        -0.2001 
     29 N          26.9616   25.4371   -1.6407 N.am      3 UNK        -0.4354 
     30 C          28.1225   25.1105   -2.2254 C.2       2 UNK         0.4964 
     31 O          28.9754   25.9265   -2.5796 O.2       2 UNK        -0.5047 
     32 CA         28.3768   23.6113   -2.4483 C.3       2 UNK         0.0288 
     33 CB         28.8562   23.3303   -3.8834 C.3       2 UNK        -0.2113 
     34 N          29.3764   23.1198   -1.5046 N.am      2 UNK        -0.4145 
     35 C          29.1420   22.8581   -0.2107 C.2       1 UNK         0.5006 
     36 O          28.0242   22.9400    0.3003 O.2       1 UNK        -0.5103 
     37 C          28.1857   28.4592    4.8954 C.2       5 UNK         0.5055 
     38 O          27.2825   28.6567    5.7101 O.2       5 UNK        -0.5220 
     39 N          29.2684   29.2449    4.7830 N.am      6 UNK        -0.4450 
     40 CA         29.5610   30.4772    5.5315 C.3       6 UNK         0.0367 
     41 CB         29.7776   30.1766    7.0297 C.3       6 UNK        -0.1929 
     42 C          28.5315   31.6021    5.2859 C.2       6 UNK         0.5070 
     43 O          28.3389   32.4590    6.1497 O.2       6 UNK        -0.5237 
     44 N          27.8864   31.5825    4.1107 N.am      7 UNK        -0.4739 
     45 CA         26.8643   32.5483    3.6961 C.3       7 UNK         0.0276 
     46 CB         26.0392   31.9394    2.5503 C.3       7 UNK        -0.1927 
     47 C          27.4590   33.9020    3.2723 C.2       7 UNK         0.5013 
     48 O          26.7992   34.9305    3.4249 O.2       7 UNK        -0.5193 
     49 N          28.6915   33.8684    2.7570 N.am      8 UNK        -0.4253 
     50 CA         29.5005   35.0121    2.3411 C.3       8 UNK         0.0242 
     51 CB         28.9375   35.6869    1.0729 C.3       8 UNK        -0.2000 
     52 C          30.9221   34.4908    2.1326 C.2       8 UNK         0.4948 
     53 O          31.8407   34.9055    2.8400 O.2       8 UNK        -0.5275 
     54 N          31.0462   33.5142    1.2248 N.am      9 UNK        -0.4246 
     55 CA         32.1677   32.5804    1.1715 C.3       9 UNK         0.0261 
     56 CB         32.2520   31.9797   -0.2411 C.3       9 UNK        -0.1959 
     57 C          31.9526   31.4750    2.2187 C.2       9 UNK         0.5033 
     58 O          30.8019   31.1791    2.5594 O.2       9 UNK        -0.5390 
     59 N          33.0566   30.8841    2.6840 N.am      10 UNK        -0.4215 
     60 CA         33.0859   29.7563    3.6147 C.3       10 UNK         0.0240 
     61 CB         33.9184   30.1456    4.8483 C.3       10 UNK        -0.1982 
     62 C          33.6829   28.5263    2.9176 C.2       10 UNK         0.4970 
     63 O          34.3621   28.6668    1.8967 O.2       10 UNK        -0.4916 
     64 N          33.4255   27.3471    3.4943 N.am      11 UNK        -0.4279 
     65 CA         33.8175   26.0418    2.9441 C.3       11 UNK         0.1003 
     66 C          35.3409   25.7174    2.9793 C.2       11 UNK         0.5709 
     67 N          36.1708   26.4855    3.6757 N.am      11 UNK        -0.7358 
     68 O          35.7785   24.7566    2.3508 O.2       11 UNK        -0.4999 
     69 C69        32.9502   24.8973    3.5325 C.3       12 UNK        -0.0954 
     70 S70        33.2061   24.6007    5.3201 S.3       12 UNK        -0.2268 
     71 C71        31.5037   24.6285    5.9835 C.3       12 UNK         0.0203 
     72 H72        34.2286   24.5083    0.0467 H         1 UNK         0.0888 
     73 H73        33.9004   23.1648   -1.0476 H         1 UNK         0.0888 
     74 H74        33.4708   24.8104   -1.5183 H         1 UNK         0.0888 
     75 H75        32.1946   21.9427   -0.2390 H         1 UNK         0.3017 
     76 H76        30.2576   22.9517    1.5973 H         1 UNK         0.0873 
     77 H77        29.2392   20.6456    1.3676 H         1 UNK         0.0745 
     78 H78        30.3276   20.3032    0.0529 H         1 UNK         0.0745 
     79 H79        31.1666   19.7187    4.4492 H         1 UNK         0.0705 
     80 H80        29.6967   19.5134    3.5337 H         1 UNK         0.0705 
     81 H81        31.9879   22.0865    4.9770 H         1 UNK         0.1334 
     82 H82        28.8541   24.9544    5.5607 H         1 UNK         0.1417 
     83 H83        28.0525   21.2976    3.4817 H         1 UNK         0.1562 
     84 H84        26.4129   23.9063    5.2324 H         1 UNK         0.0748 
     85 H85        26.2605   22.7712    3.9247 H         1 UNK         0.0748 
     86 H86        26.6565   26.1711    5.1431 H         1 UNK         0.0940 
     87 H87        25.9111   27.0755    3.8589 H         1 UNK         0.0940 
     88 H88        28.9247   26.6192    4.1372 H         1 UNK         0.0703 
     89 H89        27.4026   27.8732    1.9822 H         1 UNK         0.3081 
     90 H90        28.9904   29.4628    0.4717 H         1 UNK         0.0719 
     91 H91        31.1982   27.4852   -0.2844 H         1 UNK         0.0809 
     92 H92        30.7271   28.9169   -1.1979 H         1 UNK         0.0809 
     93 H93        31.4594   29.0830    0.3896 H         1 UNK         0.0809 
     94 H94        28.9214   27.0310   -1.0805 H         1 UNK         0.2990 
     95 H95        25.4087   26.5792   -0.9506 H         1 UNK         0.0690 
     96 H96        25.5267   26.9410   -3.3988 H         1 UNK         0.0788 
     97 H97        27.0795   27.7591   -3.2290 H         1 UNK         0.0788 
     98 H98        25.6294   28.4680   -2.5379 H         1 UNK         0.0788 
     99 H99        26.3846   24.6716   -1.3178 H         1 UNK         0.2993 
    100 H100       27.4444   23.0630   -2.2948 H         1 UNK         0.0949 
    101 H101       29.8078   23.8185   -4.0984 H         1 UNK         0.0767 
    102 H102       28.9817   22.2613   -4.0568 H         1 UNK         0.0767 
    103 H103       28.1316   23.6938   -4.6134 H         1 UNK         0.0767 
    104 H104       30.3270   23.0611   -1.8380 H         1 UNK         0.3013 
    105 H105       29.9269   29.0078    4.0451 H         1 UNK         0.3121 
    106 H106       30.5064   30.8566    5.1443 H         1 UNK         0.0774 
    107 H107       30.5182   29.3900    7.1734 H         1 UNK         0.0815 
    108 H108       30.1399   31.0599    7.5570 H         1 UNK         0.0815 
    109 H109       28.8547   29.8643    7.5188 H         1 UNK         0.0815 
    110 H110       28.1289   30.8555    3.4533 H         1 UNK         0.2987 
    111 H111       26.1969   32.7312    4.5414 H         1 UNK         0.0949 
    112 H112       25.2523   32.6238    2.2301 H         1 UNK         0.0806 
    113 H113       26.6555   31.7199    1.6773 H         1 UNK         0.0806 
    114 H114       25.5547   31.0127    2.8591 H         1 UNK         0.0806 
    115 H115       29.1653   32.9722    2.7367 H         1 UNK         0.3010 
    116 H116       29.5202   35.7410    3.1541 H         1 UNK         0.0829 
    117 H117       27.9728   36.1555    1.2673 H         1 UNK         0.0813 
    118 H118       29.6079   36.4714    0.7196 H         1 UNK         0.0813 
    119 H119       28.8013   34.9784    0.2554 H         1 UNK         0.0813 
    120 H120       30.2226   33.2383    0.7105 H         1 UNK         0.3038 
    121 H121       33.0974   33.1102    1.3912 H         1 UNK         0.0769 
    122 H122       33.0693   31.2609   -0.3153 H         1 UNK         0.0811 
    123 H123       32.4323   32.7525   -0.9884 H         1 UNK         0.0811 
    124 H124       31.3336   31.4589   -0.5146 H         1 UNK         0.0811 
    125 H125       33.9487   31.1296    2.2766 H         1 UNK         0.3204 
    126 H126       32.0767   29.5014    3.9389 H         1 UNK         0.0748 
    127 H127       33.9418   29.3379    5.5809 H         1 UNK         0.0771 
    128 H128       34.9507   30.3782    4.5832 H         1 UNK         0.0771 
    129 H129       33.4969   31.0188    5.3468 H         1 UNK         0.0771 
    130 H130       32.8689   27.3160    4.3344 H         1 UNK         0.2980 
    131 H131       33.5720   26.0886    1.8819 H         1 UNK         0.0545 
    132 H132       37.1545   26.2677    3.6859 H         1 UNK         0.3459 
    133 H133       35.8211   27.2756    4.1921 H         1 UNK         0.3459 
    134 H134       33.1464   23.9626    3.0041 H         1 UNK         0.0616 
    135 H135       31.8975   25.1172    3.3458 H         1 UNK         0.0616 
    136 H136       31.1262   25.6484    5.8926 H         1 UNK         0.0634 
    137 H137       31.5421   24.4048    7.0501 H         1 UNK         0.0634 
@<TRIPOS>BOND
     1    1    2 1    
     2    1   72 1    
     3    1   73 1    
     4    1   74 1    
     5    2    3 2    
     6    2    4 am   BACKBONE|DICT|INTERRES
     7    4    5 1    
     8    4   75 1    
     9    5    6 1    
    10    5   35 1    
    11    5   76 1    
    12    6    7 1    
    13    6   77 1    
    14    6   78 1    
    15    7    8 1    
    16    8    9 1    
    17    8   79 1    
    18    8   80 1    
    19    9   10 ar   
    20    9   14 ar   
    21   10   11 ar   
    22   10   81 1    
    23   11   12 ar   
    24   11   71 1    
    25   12   13 ar   
    26   12   82 1    
    27   13   14 ar   
    28   13   15 1    
    29   14   83 1    
    30   15   16 1    
    31   15   84 1    
    32   15   85 1    
    33   16   17 1    
    34   17   18 1    
    35   17   86 1    
    36   17   87 1    
    37   18   19 1    
    38   18   37 1    
    39   18   88 1    
    40   19   20 am   BACKBONE|DICT|INTERRES
    41   19   89 1    
    42   20   21 2    
    43   20   22 1    
    44   22   23 1    
    45   22   24 1    
    46   22   90 1    
    47   23   91 1    
    48   23   92 1    
    49   23   93 1    
    50   24   25 am   BACKBONE|DICT|INTERRES
    51   24   94 1    
    52   25   26 2    
    53   25   27 1    
    54   27   28 1    
    55   27   29 1    
    56   27   95 1    
    57   28   96 1    
    58   28   97 1    
    59   28   98 1    
    60   29   30 am   BACKBONE|DICT|INTERRES
    61   29   99 1    
    62   30   31 2    
    63   30   32 1    
    64   32   33 1    
    65   32   34 1    
    66   32  100 1    
    67   33  101 1    
    68   33  102 1    
    69   33  103 1    
    70   34   35 am   BACKBONE|DICT|INTERRES
    71   34  104 1    
    72   35   36 2    
    73   37   38 2    
    74   37   39 am   BACKBONE|DICT|INTERRES
    75   39   40 1    
    76   39  105 1    
    77   40   41 1    
    78   40   42 1    
    79   40  106 1    
    80   41  107 1    
    81   41  108 1    
    82   41  109 1    
    83   42   43 2    
    84   42   44 am   BACKBONE|DICT|INTERRES
    85   44   45 1    
    86   44  110 1    
    87   45   46 1    
    88   45   47 1    
    89   45  111 1    
    90   46  112 1    
    91   46  113 1    
    92   46  114 1    
    93   47   48 2    
    94   47   49 am   BACKBONE|DICT|INTERRES
    95   49   50 1    
    96   49  115 1    
    97   50   51 1    
    98   50   52 1    
    99   50  116 1    
   100   51  117 1    
   101   51  118 1    
   102   51  119 1    
   103   52   53 2    
   104   52   54 am   BACKBONE|DICT|INTERRES
   105   54   55 1    
   106   54  120 1    
   107   55   56 1    
   108   55   57 1    
   109   55  121 1    
   110   56  122 1    
   111   56  123 1    
   112   56  124 1    
   113   57   58 2    
   114   57   59 am   BACKBONE|DICT|INTERRES
   115   59   60 1    
   116   59  125 1    
   117   60   61 1    
   118   60   62 1    
   119   60  126 1    
   120   61  127 1    
   121   61  128 1    
   122   61  129 1    
   123   62   63 2    
   124   62   64 am   BACKBONE|DICT|INTERRES
   125   64   65 1    
   126   64  130 1    
   127   65   66 1    
   128   65   69 1    
   129   65  131 1    
   130   66   67 am   BACKBONE|DICT|INTERRES
   131   66   68 2    
   132   67  132 1    
   133   67  133 1    
   134   69   70 1    
   135   69  134 1    
   136   69  135 1    
   137   70   71 1    
   138   71  136 1    
   139   71  137 1    
@<TRIPOS>SUBSTRUCTURE
     1 UNK         1 GROUP             0       ****    0 ROOT    
