@<TRIPOS>MOLECULE
3R136
137   139    1
SMALL
USER_CHARGES


@<TRIPOS>ATOM
      1 CA         31.0765   26.6522    0.8335 C.3       0 UNK        -0.1979 
      2 C          30.5586   25.6339   -0.1670 C.2       0 UNK         0.4864 
      3 O          31.2479   25.3078   -1.1332 O.2       0 UNK        -0.5359 
      4 N          29.3288   25.1564    0.0573 N.am      1 UNK        -0.4318 
      5 CA         28.5878   24.1728   -0.7466 C.3       1 UNK         0.0824 
      6 C6         29.3011   22.8048   -0.9181 C.3       12 UNK        -0.0944 
      7 S7         29.6078   21.9924    0.6872 S.3       12 UNK        -0.2672 
      8 C8         31.4236   22.1001    0.8590 C.3       12 UNK         0.0333 
      9 C9         31.8734   22.8055    2.1360 C.ar      12 UNK        -0.0807 
     10 C10        32.9631   23.6838    2.0955 C.ar      12 UNK        -0.0894 
     11 C11        33.4286   24.2977    3.2625 C.ar      12 UNK        -0.0804 
     12 C12        32.7957   24.0268    4.4782 C.ar      12 UNK        -0.0824 
     13 C13        31.6972   23.1663    4.5333 C.ar      12 UNK        -0.0762 
     14 C14        31.2473   22.5499    3.3629 C.ar      12 UNK        -0.0782 
     15 C15        31.0162   22.8962    5.8658 C.3       12 UNK         0.0230 
     16 S16        30.0570   24.3371    6.4292 S.3       12 UNK        -0.2608 
     17 C17        28.5300   24.2095    5.4309 C.3       12 UNK        -0.0989 
     18 CA         28.4355   25.1081    4.1651 C.3       5 UNK         0.0716 
     19 N          27.0809   25.0327    3.5953 N.am      5 UNK        -0.4135 
     20 C          26.6723   25.6409    2.4754 C.2       4 UNK         0.5031 
     21 O          27.4185   26.3063    1.7502 O.2       4 UNK        -0.5229 
     22 CA         25.1843   25.5184    2.1183 C.3       4 UNK         0.0329 
     23 CB         24.2990   26.2232    3.1645 C.3       4 UNK        -0.2001 
     24 N          24.9912   26.1405    0.8130 N.am      4 UNK        -0.4303 
     25 C          23.9967   25.9123   -0.0537 C.2       3 UNK         0.5044 
     26 O          23.0610   25.1415    0.1591 O.2       3 UNK        -0.5152 
     27 CA         24.0825   26.6503   -1.3985 C.3       3 UNK         0.0319 
     28 CB         23.4739   28.0613   -1.2960 C.3       3 UNK        -0.2001 
     29 N          25.4738   26.7149   -1.8455 N.am      3 UNK        -0.4354 
     30 C          25.9066   26.9093   -3.0972 C.2       2 UNK         0.4964 
     31 O          25.1681   27.1428   -4.0542 O.2       2 UNK        -0.5047 
     32 CA         27.4309   26.8156   -3.3176 C.3       2 UNK         0.0288 
     33 CB         28.0489   28.2195   -3.4268 C.3       2 UNK        -0.2113 
     34 N          28.1119   26.0756   -2.2480 N.am      2 UNK        -0.4145 
     35 C          28.0497   24.7456   -2.0773 C.2       1 UNK         0.5006 
     36 O          27.5179   23.9900   -2.8925 O.2       1 UNK        -0.5103 
     37 C          28.8812   26.5716    4.4077 C.2       5 UNK         0.5055 
     38 O          29.9964   26.9397    4.0469 O.2       5 UNK        -0.5220 
     39 N          27.9764   27.3963    4.9514 N.am      6 UNK        -0.4450 
     40 CA         28.2134   28.8079    5.2667 C.3       6 UNK         0.0367 
     41 CB         27.2499   29.2204    6.3942 C.3       6 UNK        -0.1929 
     42 C          28.0971   29.7667    4.0615 C.2       6 UNK         0.5070 
     43 O          28.1487   30.9796    4.2687 O.2       6 UNK        -0.5237 
     44 N          27.9162   29.2489    2.8355 N.am      7 UNK        -0.4739 
     45 CA         27.7155   30.0577    1.6241 C.3       7 UNK         0.0276 
     46 CB         27.1605   29.1746    0.4960 C.3       7 UNK        -0.1927 
     47 C          28.9637   30.8214    1.1419 C.2       7 UNK         0.5013 
     48 O          28.8136   31.7565    0.3540 O.2       7 UNK        -0.5193 
     49 N          30.1553   30.4254    1.6060 N.am      8 UNK        -0.4253 
     50 CA         31.4187   31.1134    1.3492 C.3       8 UNK         0.0242 
     51 CB         32.4221   30.1274    0.7299 C.3       8 UNK        -0.2000 
     52 C          31.9524   31.6479    2.6799 C.2       8 UNK         0.4948 
     53 O          31.9318   30.9182    3.6734 O.2       8 UNK        -0.5275 
     54 N          32.4672   32.8849    2.6723 N.am      9 UNK        -0.4246 
     55 CA         33.0075   33.5733    3.8525 C.3       9 UNK         0.0261 
     56 CB         33.3263   35.0330    3.4896 C.3       9 UNK        -0.1959 
     57 C          34.2413   32.8908    4.4719 C.2       9 UNK         0.5033 
     58 O          34.4546   33.0121    5.6787 O.2       9 UNK        -0.5390 
     59 N          35.0172   32.1763    3.6450 N.am      10 UNK        -0.4215 
     60 CA         36.1492   31.3516    4.0727 C.3       10 UNK         0.0240 
     61 CB         37.0251   31.0264    2.8514 C.3       10 UNK        -0.1982 
     62 C          35.7181   30.0537    4.7814 C.2       10 UNK         0.4970 
     63 O          36.4889   29.5332    5.5890 O.2       10 UNK        -0.4916 
     64 N          34.5189   29.5524    4.4617 N.am      11 UNK        -0.4279 
     65 CA         33.9340   28.3394    5.0454 C.3       11 UNK         0.1003 
     66 C          33.0379   28.6583    6.2707 C.2       11 UNK         0.5709 
     67 N          32.2466   29.7238    6.2382 N.am      11 UNK        -0.7358 
     68 O          33.0772   27.9424    7.2682 O.2       11 UNK        -0.4999 
     69 C69        33.1494   27.5258    3.9894 C.3       12 UNK        -0.0954 
     70 S70        34.2070   26.9044    2.6379 S.3       12 UNK        -0.2268 
     71 C71        34.6317   25.2317    3.2202 C.3       12 UNK         0.0203 
     72 H72        30.3235   27.4084    1.0535 H         1 UNK         0.0888 
     73 H73        31.3455   26.1570    1.7663 H         1 UNK         0.0888 
     74 H74        31.9630   27.1524    0.4464 H         1 UNK         0.0888 
     75 H75        28.8017   25.5276    0.8457 H         1 UNK         0.3017 
     76 H76        27.6840   23.9764   -0.1675 H         1 UNK         0.0873 
     77 H77        28.6760   22.1193   -1.4932 H         1 UNK         0.0745 
     78 H78        30.2226   22.9082   -1.4914 H         1 UNK         0.0745 
     79 H79        31.8302   21.0882    0.8619 H         1 UNK         0.0705 
     80 H80        31.8542   22.5967   -0.0111 H         1 UNK         0.0705 
     81 H81        33.4586   23.8865    1.1556 H         1 UNK         0.1334 
     82 H82        33.1492   24.4962    5.3863 H         1 UNK         0.1417 
     83 H83        30.4110   21.8659    3.4081 H         1 UNK         0.1562 
     84 H84        31.7775   22.6701    6.6139 H         1 UNK         0.0748 
     85 H85        30.3741   22.0157    5.8131 H         1 UNK         0.0748 
     86 H86        27.7072   24.4470    6.1077 H         1 UNK         0.0940 
     87 H87        28.3778   23.1667    5.1482 H         1 UNK         0.0940 
     88 H88        29.1186   24.6984    3.4175 H         1 UNK         0.0703 
     89 H89        26.4072   24.4947    4.1210 H         1 UNK         0.3081 
     90 H90        24.9278   24.4586    2.0584 H         1 UNK         0.0719 
     91 H91        24.5595   27.2778    3.2671 H         1 UNK         0.0809 
     92 H92        23.2447   26.1680    2.8930 H         1 UNK         0.0809 
     93 H93        24.3968   25.7630    4.1482 H         1 UNK         0.0809 
     94 H94        25.7318   26.7868    0.5799 H         1 UNK         0.2990 
     95 H95        23.5113   26.0714   -2.1276 H         1 UNK         0.0690 
     96 H96        23.4531   28.5574   -2.2663 H         1 UNK         0.0788 
     97 H97        24.0350   28.6955   -0.6089 H         1 UNK         0.0788 
     98 H98        22.4454   28.0167   -0.9351 H         1 UNK         0.0788 
     99 H99        26.1669   26.4674   -1.1573 H         1 UNK         0.2993 
    100 H100       27.5944   26.2913   -4.2619 H         1 UNK         0.0949 
    101 H101       29.1162   28.1668   -3.6432 H         1 UNK         0.0767 
    102 H102       27.5842   28.7878   -4.2339 H         1 UNK         0.0767 
    103 H103       27.9201   28.7936   -2.5089 H         1 UNK         0.0767 
    104 H104       28.6079   26.6187   -1.5571 H         1 UNK         0.3013 
    105 H105       27.0669   27.0277    5.1867 H         1 UNK         0.3121 
    106 H106       29.2334   28.9088    5.6453 H         1 UNK         0.0774 
    107 H107       27.4412   30.2432    6.7220 H         1 UNK         0.0815 
    108 H108       26.2088   29.1710    6.0730 H         1 UNK         0.0815 
    109 H109       27.3644   28.5801    7.2690 H         1 UNK         0.0815 
    110 H110       27.8980   28.2425    2.7233 H         1 UNK         0.2987 
    111 H111       26.9600   30.8123    1.8546 H         1 UNK         0.0949 
    112 H112       27.8698   28.3997    0.2054 H         1 UNK         0.0806 
    113 H113       26.2285   28.6994    0.7969 H         1 UNK         0.0806 
    114 H114       26.9431   29.7682   -0.3931 H         1 UNK         0.0806 
    115 H115       30.1799   29.7097    2.3199 H         1 UNK         0.3010 
    116 H116       31.2772   31.9472    0.6582 H         1 UNK         0.0829 
    117 H117       32.0401   29.7077   -0.2008 H         1 UNK         0.0813 
    118 H118       33.3662   30.6220    0.4984 H         1 UNK         0.0813 
    119 H119       32.6455   29.3001    1.4035 H         1 UNK         0.0813 
    120 H120       32.4555   33.4121    1.8104 H         1 UNK         0.3038 
    121 H121       32.2259   33.5749    4.6155 H         1 UNK         0.0769 
    122 H122       34.0832   35.0998    2.7070 H         1 UNK         0.0811 
    123 H123       33.7056   35.5764    4.3563 H         1 UNK         0.0811 
    124 H124       32.4369   35.5605    3.1445 H         1 UNK         0.0811 
    125 H125       34.7794   32.1575    2.6642 H         1 UNK         0.3204 
    126 H126       36.7488   31.9298    4.7793 H         1 UNK         0.0748 
    127 H127       37.3946   31.9343    2.3739 H         1 UNK         0.0771 
    128 H128       37.8966   30.4382    3.1426 H         1 UNK         0.0771 
    129 H129       36.4790   30.4497    2.1034 H         1 UNK         0.0771 
    130 H130       33.9060   30.0784    3.8544 H         1 UNK         0.2980 
    131 H131       34.7386   27.6965    5.4081 H         1 UNK         0.0545 
    132 H132       31.6775   29.9435    7.0385 H         1 UNK         0.3459 
    133 H133       32.1599   30.2680    5.3831 H         1 UNK         0.3459 
    134 H134       32.3663   28.1420    3.5452 H         1 UNK         0.0616 
    135 H135       32.6309   26.6908    4.4574 H         1 UNK         0.0616 
    136 H136       35.3892   24.8140    2.5557 H         1 UNK         0.0634 
    137 H137       35.0984   25.3043    4.2038 H         1 UNK         0.0634 
@<TRIPOS>BOND
     1    1    2 1    
     2    1   72 1    
     3    1   73 1    
     4    1   74 1    
     5    2    3 2    
     6    2    4 am   BACKBONE|DICT|INTERRES
     7    4    5 1    
     8    4   75 1    
     9    5    6 1    
    10    5   35 1    
    11    5   76 1    
    12    6    7 1    
    13    6   77 1    
    14    6   78 1    
    15    7    8 1    
    16    8    9 1    
    17    8   79 1    
    18    8   80 1    
    19    9   10 ar   
    20    9   14 ar   
    21   10   11 ar   
    22   10   81 1    
    23   11   12 ar   
    24   11   71 1    
    25   12   13 ar   
    26   12   82 1    
    27   13   14 ar   
    28   13   15 1    
    29   14   83 1    
    30   15   16 1    
    31   15   84 1    
    32   15   85 1    
    33   16   17 1    
    34   17   18 1    
    35   17   86 1    
    36   17   87 1    
    37   18   19 1    
    38   18   37 1    
    39   18   88 1    
    40   19   20 am   BACKBONE|DICT|INTERRES
    41   19   89 1    
    42   20   21 2    
    43   20   22 1    
    44   22   23 1    
    45   22   24 1    
    46   22   90 1    
    47   23   91 1    
    48   23   92 1    
    49   23   93 1    
    50   24   25 am   BACKBONE|DICT|INTERRES
    51   24   94 1    
    52   25   26 2    
    53   25   27 1    
    54   27   28 1    
    55   27   29 1    
    56   27   95 1    
    57   28   96 1    
    58   28   97 1    
    59   28   98 1    
    60   29   30 am   BACKBONE|DICT|INTERRES
    61   29   99 1    
    62   30   31 2    
    63   30   32 1    
    64   32   33 1    
    65   32   34 1    
    66   32  100 1    
    67   33  101 1    
    68   33  102 1    
    69   33  103 1    
    70   34   35 am   BACKBONE|DICT|INTERRES
    71   34  104 1    
    72   35   36 2    
    73   37   38 2    
    74   37   39 am   BACKBONE|DICT|INTERRES
    75   39   40 1    
    76   39  105 1    
    77   40   41 1    
    78   40   42 1    
    79   40  106 1    
    80   41  107 1    
    81   41  108 1    
    82   41  109 1    
    83   42   43 2    
    84   42   44 am   BACKBONE|DICT|INTERRES
    85   44   45 1    
    86   44  110 1    
    87   45   46 1    
    88   45   47 1    
    89   45  111 1    
    90   46  112 1    
    91   46  113 1    
    92   46  114 1    
    93   47   48 2    
    94   47   49 am   BACKBONE|DICT|INTERRES
    95   49   50 1    
    96   49  115 1    
    97   50   51 1    
    98   50   52 1    
    99   50  116 1    
   100   51  117 1    
   101   51  118 1    
   102   51  119 1    
   103   52   53 2    
   104   52   54 am   BACKBONE|DICT|INTERRES
   105   54   55 1    
   106   54  120 1    
   107   55   56 1    
   108   55   57 1    
   109   55  121 1    
   110   56  122 1    
   111   56  123 1    
   112   56  124 1    
   113   57   58 2    
   114   57   59 am   BACKBONE|DICT|INTERRES
   115   59   60 1    
   116   59  125 1    
   117   60   61 1    
   118   60   62 1    
   119   60  126 1    
   120   61  127 1    
   121   61  128 1    
   122   61  129 1    
   123   62   63 2    
   124   62   64 am   BACKBONE|DICT|INTERRES
   125   64   65 1    
   126   64  130 1    
   127   65   66 1    
   128   65   69 1    
   129   65  131 1    
   130   66   67 am   BACKBONE|DICT|INTERRES
   131   66   68 2    
   132   67  132 1    
   133   67  133 1    
   134   69   70 1    
   135   69  134 1    
   136   69  135 1    
   137   70   71 1    
   138   71  136 1    
   139   71  137 1    
@<TRIPOS>SUBSTRUCTURE
     1 UNK         1 GROUP             0       ****    0 ROOT    
