@<TRIPOS>MOLECULE
3R136
137   139    1
SMALL
USER_CHARGES


@<TRIPOS>ATOM
      1 CA         30.7762   25.3717   -5.9342 C.3       0 UNK        -0.1979 
      2 C          30.2867   25.7099   -4.5336 C.2       0 UNK         0.4864 
      3 O          30.0608   26.8828   -4.2325 O.2       0 UNK        -0.5359 
      4 N          30.1290   24.6933   -3.6760 N.am      1 UNK        -0.4318 
      5 CA         29.6088   24.8263   -2.3136 C.3       1 UNK         0.0824 
      6 C6         29.9556   23.5782   -1.4627 C.3       12 UNK        -0.0944 
      7 S7         29.8145   23.9069    0.3238 S.3       12 UNK        -0.2672 
      8 C8         31.4906   23.5229    0.9198 C.3       12 UNK         0.0333 
      9 C9         31.6578   23.9703    2.3629 C.ar      12 UNK        -0.0807 
     10 C10        32.5460   24.9954    2.6983 C.ar      12 UNK        -0.0894 
     11 C11        32.6821   25.4205    4.0241 C.ar      12 UNK        -0.0804 
     12 C12        31.9014   24.8069    5.0157 C.ar      12 UNK        -0.0824 
     13 C13        30.9980   23.7863    4.6943 C.ar      12 UNK        -0.0762 
     14 C14        30.9077   23.3569    3.3662 C.ar      12 UNK        -0.0782 
     15 C15        30.1474   23.1533    5.7973 C.3       12 UNK         0.0230 
     16 S16        28.5363   22.4909    5.2319 S.3       12 UNK        -0.2608 
     17 C17        27.4512   23.9578    5.2476 C.3       12 UNK        -0.0989 
     18 CA         27.4780   24.7806    3.9209 C.3       5 UNK         0.0716 
     19 N          26.1636   25.2738    3.5004 N.am      5 UNK        -0.4135 
     20 C          25.3070   26.0117    4.2262 C.2       4 UNK         0.5031 
     21 O          25.4854   26.3010    5.4099 O.2       4 UNK        -0.5229 
     22 CA         24.0302   26.5354    3.5325 C.3       4 UNK         0.0329 
     23 CB         24.0720   28.0696    3.4233 C.3       4 UNK        -0.2001 
     24 N          23.8036   25.9821    2.1964 N.am      4 UNK        -0.4303 
     25 C          23.4512   24.7192    1.9195 C.2       3 UNK         0.5044 
     26 O          23.1526   23.8889    2.7780 O.2       3 UNK        -0.5152 
     27 CA         23.4752   24.2988    0.4356 C.3       3 UNK         0.0319 
     28 CB         22.0453   24.2276   -0.1246 C.3       3 UNK        -0.2001 
     29 N          24.2897   25.1613   -0.4344 N.am      3 UNK        -0.4354 
     30 C          25.6065   25.3801   -0.3049 C.2       2 UNK         0.4964 
     31 O          26.2951   24.9091    0.6048 O.2       2 UNK        -0.5047 
     32 CA         26.2290   26.3658   -1.3036 C.3       2 UNK         0.0288 
     33 CB         26.1160   27.8022   -0.7650 C.3       2 UNK        -0.2113 
     34 N          27.6388   26.0553   -1.5244 N.am      2 UNK        -0.4145 
     35 C          28.0895   25.0955   -2.3397 C.2       1 UNK         0.5006 
     36 O          27.3631   24.4227   -3.0778 O.2       1 UNK        -0.5103 
     37 C          28.4684   25.9608    3.9306 C.2       5 UNK         0.5055 
     38 O          28.9017   26.4028    4.9966 O.2       5 UNK        -0.5220 
     39 N          28.7730   26.4831    2.7360 N.am      6 UNK        -0.4450 
     40 CA         29.7326   27.5627    2.5383 C.3       6 UNK         0.0367 
     41 CB         29.1042   28.9196    2.9059 C.3       6 UNK        -0.1929 
     42 C          30.2102   27.5751    1.0868 C.2       6 UNK         0.5070 
     43 O          29.4032   27.3610    0.1817 O.2       6 UNK        -0.5237 
     44 N          31.4981   27.8743    0.8941 N.am      7 UNK        -0.4739 
     45 CA         32.1265   28.0943   -0.4129 C.3       7 UNK         0.0276 
     46 CB         32.8440   26.8090   -0.8631 C.3       7 UNK        -0.1927 
     47 C          33.0939   29.2929   -0.3861 C.2       7 UNK         0.5013 
     48 O          33.8009   29.5173   -1.3696 O.2       7 UNK        -0.5193 
     49 N          33.1297   30.0332    0.7292 N.am      8 UNK        -0.4253 
     50 CA         34.0065   31.1701    0.9830 C.3       8 UNK         0.0242 
     51 CB         35.4270   30.6786    1.3245 C.3       8 UNK        -0.2000 
     52 C          33.4199   31.9677    2.1503 C.2       8 UNK         0.4948 
     53 O          32.6582   31.4106    2.9482 O.2       8 UNK        -0.5275 
     54 N          33.8264   33.2391    2.2645 N.am      9 UNK        -0.4246 
     55 CA         33.3887   34.1857    3.3003 C.3       9 UNK         0.0261 
     56 CB         33.9681   35.5756    2.9887 C.3       9 UNK        -0.1959 
     57 C          33.7324   33.7723    4.7451 C.2       9 UNK         0.5033 
     58 O          33.0956   34.2663    5.6764 O.2       9 UNK        -0.5390 
     59 N          34.7095   32.8689    4.9095 N.am      10 UNK        -0.4215 
     60 CA         35.0589   32.2319    6.1812 C.3       10 UNK         0.0240 
     61 CB         36.3706   31.4479    6.0113 C.3       10 UNK        -0.1982 
     62 C          33.9496   31.3101    6.7237 C.2       10 UNK         0.4970 
     63 O          33.8302   31.1804    7.9429 O.2       10 UNK        -0.4916 
     64 N          33.1685   30.7004    5.8224 N.am      11 UNK        -0.4279 
     65 CA         32.0018   29.8675    6.1477 C.3       11 UNK         0.1003 
     66 C          30.6701   30.6264    5.9075 C.2       11 UNK         0.5709 
     67 N          30.5715   31.4741    4.8899 N.am      11 UNK        -0.7358 
     68 O          29.7188   30.4568    6.6658 O.2       11 UNK        -0.4999 
     69 C69        32.0202   28.5286    5.3688 C.3       12 UNK        -0.0954 
     70 S70        33.4177   27.4685    5.8620 S.3       12 UNK        -0.2268 
     71 C71        33.7168   26.5048    4.3401 C.3       12 UNK         0.0203 
     72 H72        30.9477   24.3027   -6.0597 H         1 UNK         0.0888 
     73 H73        31.7116   25.8914   -6.1402 H         1 UNK         0.0888 
     74 H74        30.0409   25.6862   -6.6743 H         1 UNK         0.0888 
     75 H75        30.2948   23.7486   -3.9920 H         1 UNK         0.3017 
     76 H76        30.0985   25.6947   -1.8690 H         1 UNK         0.0873 
     77 H77        30.9764   23.2563   -1.6748 H         1 UNK         0.0745 
     78 H78        29.3173   22.7306   -1.7203 H         1 UNK         0.0745 
     79 H79        31.6623   22.4480    0.8475 H         1 UNK         0.0705 
     80 H80        32.2332   23.9998    0.2805 H         1 UNK         0.0705 
     81 H81        33.1417   25.4583    1.9241 H         1 UNK         0.1334 
     82 H82        31.9919   25.1195    6.0462 H         1 UNK         0.1417 
     83 H83        30.2319   22.5583    3.0940 H         1 UNK         0.1562 
     84 H84        29.9725   23.8714    6.6001 H         1 UNK         0.0748 
     85 H85        30.7191   22.3343    6.2354 H         1 UNK         0.0748 
     86 H86        27.6499   24.5674    6.1307 H         1 UNK         0.0940 
     87 H87        26.4460   23.5651    5.4083 H         1 UNK         0.0940 
     88 H88        27.7954   24.1142    3.1165 H         1 UNK         0.0703 
     89 H89        25.9531   25.1187    2.5188 H         1 UNK         0.3081 
     90 H90        23.1829   26.2577    4.1630 H         1 UNK         0.0719 
     91 H91        24.1915   28.5292    4.4056 H         1 UNK         0.0809 
     92 H92        24.9037   28.4077    2.8035 H         1 UNK         0.0809 
     93 H93        23.1500   28.4639    2.9955 H         1 UNK         0.0809 
     94 H94        24.0139   26.5884    1.4176 H         1 UNK         0.2990 
     95 H95        23.9080   23.2970    0.3964 H         1 UNK         0.0690 
     96 H96        22.0352   23.8336   -1.1411 H         1 UNK         0.0788 
     97 H97        21.5675   25.2082   -0.1379 H         1 UNK         0.0788 
     98 H98        21.4203   23.5692    0.4807 H         1 UNK         0.0788 
     99 H99        23.7999   25.6119   -1.1947 H         1 UNK         0.2993 
    100 H100       25.6971   26.2993   -2.2554 H         1 UNK         0.0949 
    101 H101       26.6135   27.9119    0.2001 H         1 UNK         0.0767 
    102 H102       26.5664   28.5180   -1.4530 H         1 UNK         0.0767 
    103 H103       25.0734   28.0939   -0.6321 H         1 UNK         0.0767 
    104 H104       28.3043   26.5314   -0.9136 H         1 UNK         0.3013 
    105 H105       28.4040   26.0731    1.8856 H         1 UNK         0.3121 
    106 H106       30.5927   27.3682    3.1790 H         1 UNK         0.0774 
    107 H107       28.2086   29.1184    2.3159 H         1 UNK         0.0815 
    108 H108       28.8264   28.9611    3.9590 H         1 UNK         0.0815 
    109 H109       29.8030   29.7370    2.7245 H         1 UNK         0.0815 
    110 H110       32.0963   27.9971    1.6978 H         1 UNK         0.2987 
    111 H111       31.3601   28.3390   -1.1522 H         1 UNK         0.0949 
    112 H112       32.1591   25.9650   -0.8953 H         1 UNK         0.0806 
    113 H113       33.2579   26.9215   -1.8660 H         1 UNK         0.0806 
    114 H114       33.6675   26.5514   -0.1969 H         1 UNK         0.0806 
    115 H115       32.4593   29.8722    1.4691 H         1 UNK         0.3010 
    116 H116       34.0323   31.8083    0.0970 H         1 UNK         0.0829 
    117 H117       36.0977   31.5144    1.5270 H         1 UNK         0.0813 
    118 H118       35.8626   30.1144    0.4997 H         1 UNK         0.0813 
    119 H119       35.4293   30.0346    2.2051 H         1 UNK         0.0813 
    120 H120       34.4658   33.6030    1.5718 H         1 UNK         0.3038 
    121 H121       32.3000   34.2493    3.2417 H         1 UNK         0.0769 
    122 H122       33.6454   35.9313    2.0100 H         1 UNK         0.0811 
    123 H123       35.0588   35.5713    3.0036 H         1 UNK         0.0811 
    124 H124       33.6356   36.3115    3.7225 H         1 UNK         0.0811 
    125 H125       35.1953   32.5434    4.0872 H         1 UNK         0.3204 
    126 H126       35.2225   33.0208    6.9186 H         1 UNK         0.0748 
    127 H127       36.6716   30.9840    6.9519 H         1 UNK         0.0771 
    128 H128       36.2733   30.6510    5.2725 H         1 UNK         0.0771 
    129 H129       37.1864   32.1001    5.6987 H         1 UNK         0.0771 
    130 H130       33.2958   30.9052    4.8392 H         1 UNK         0.2980 
    131 H131       32.0177   29.6177    7.2103 H         1 UNK         0.0545 
    132 H132       31.3282   31.5694    4.2192 H         1 UNK         0.3459 
    133 H133       29.7098   31.9756    4.7509 H         1 UNK         0.3459 
    134 H134       32.0761   28.7249    4.2975 H         1 UNK         0.0616 
    135 H135       31.1021   27.9641    5.5418 H         1 UNK         0.0616 
    136 H136       34.6889   26.0201    4.4374 H         1 UNK         0.0634 
    137 H137       33.8056   27.1989    3.5030 H         1 UNK         0.0634 
@<TRIPOS>BOND
     1    1    2 1    
     2    1   72 1    
     3    1   73 1    
     4    1   74 1    
     5    2    3 2    
     6    2    4 am   BACKBONE|DICT|INTERRES
     7    4    5 1    
     8    4   75 1    
     9    5    6 1    
    10    5   35 1    
    11    5   76 1    
    12    6    7 1    
    13    6   77 1    
    14    6   78 1    
    15    7    8 1    
    16    8    9 1    
    17    8   79 1    
    18    8   80 1    
    19    9   10 ar   
    20    9   14 ar   
    21   10   11 ar   
    22   10   81 1    
    23   11   12 ar   
    24   11   71 1    
    25   12   13 ar   
    26   12   82 1    
    27   13   14 ar   
    28   13   15 1    
    29   14   83 1    
    30   15   16 1    
    31   15   84 1    
    32   15   85 1    
    33   16   17 1    
    34   17   18 1    
    35   17   86 1    
    36   17   87 1    
    37   18   19 1    
    38   18   37 1    
    39   18   88 1    
    40   19   20 am   BACKBONE|DICT|INTERRES
    41   19   89 1    
    42   20   21 2    
    43   20   22 1    
    44   22   23 1    
    45   22   24 1    
    46   22   90 1    
    47   23   91 1    
    48   23   92 1    
    49   23   93 1    
    50   24   25 am   BACKBONE|DICT|INTERRES
    51   24   94 1    
    52   25   26 2    
    53   25   27 1    
    54   27   28 1    
    55   27   29 1    
    56   27   95 1    
    57   28   96 1    
    58   28   97 1    
    59   28   98 1    
    60   29   30 am   BACKBONE|DICT|INTERRES
    61   29   99 1    
    62   30   31 2    
    63   30   32 1    
    64   32   33 1    
    65   32   34 1    
    66   32  100 1    
    67   33  101 1    
    68   33  102 1    
    69   33  103 1    
    70   34   35 am   BACKBONE|DICT|INTERRES
    71   34  104 1    
    72   35   36 2    
    73   37   38 2    
    74   37   39 am   BACKBONE|DICT|INTERRES
    75   39   40 1    
    76   39  105 1    
    77   40   41 1    
    78   40   42 1    
    79   40  106 1    
    80   41  107 1    
    81   41  108 1    
    82   41  109 1    
    83   42   43 2    
    84   42   44 am   BACKBONE|DICT|INTERRES
    85   44   45 1    
    86   44  110 1    
    87   45   46 1    
    88   45   47 1    
    89   45  111 1    
    90   46  112 1    
    91   46  113 1    
    92   46  114 1    
    93   47   48 2    
    94   47   49 am   BACKBONE|DICT|INTERRES
    95   49   50 1    
    96   49  115 1    
    97   50   51 1    
    98   50   52 1    
    99   50  116 1    
   100   51  117 1    
   101   51  118 1    
   102   51  119 1    
   103   52   53 2    
   104   52   54 am   BACKBONE|DICT|INTERRES
   105   54   55 1    
   106   54  120 1    
   107   55   56 1    
   108   55   57 1    
   109   55  121 1    
   110   56  122 1    
   111   56  123 1    
   112   56  124 1    
   113   57   58 2    
   114   57   59 am   BACKBONE|DICT|INTERRES
   115   59   60 1    
   116   59  125 1    
   117   60   61 1    
   118   60   62 1    
   119   60  126 1    
   120   61  127 1    
   121   61  128 1    
   122   61  129 1    
   123   62   63 2    
   124   62   64 am   BACKBONE|DICT|INTERRES
   125   64   65 1    
   126   64  130 1    
   127   65   66 1    
   128   65   69 1    
   129   65  131 1    
   130   66   67 am   BACKBONE|DICT|INTERRES
   131   66   68 2    
   132   67  132 1    
   133   67  133 1    
   134   69   70 1    
   135   69  134 1    
   136   69  135 1    
   137   70   71 1    
   138   71  136 1    
   139   71  137 1    
@<TRIPOS>SUBSTRUCTURE
     1 UNK         1 GROUP             0       ****    0 ROOT    
