@<TRIPOS>MOLECULE
3R136
137   139    1
SMALL
USER_CHARGES


@<TRIPOS>ATOM
      1 CA         27.0498   21.8725   -1.7537 C.3       0 UNK        -0.1979 
      2 C          28.3648   22.6367   -1.7072 C.2       0 UNK         0.4864 
      3 O          28.9389   22.9343   -2.7551 O.2       0 UNK        -0.5359 
      4 N          28.8508   22.9478   -0.4986 N.am      1 UNK        -0.4318 
      5 CA         30.0302   23.7835   -0.2605 C.3       1 UNK         0.0824 
      6 C6         30.5653   23.5672    1.1728 C.3       12 UNK        -0.0944 
      7 S7         32.3033   24.0721    1.3914 S.3       12 UNK        -0.2672 
      8 C8         32.7796   23.0682    2.8395 C.3       12 UNK         0.0333 
      9 C9         32.0032   23.4699    4.0872 C.ar      12 UNK        -0.0807 
     10 C10        32.5196   24.4229    4.9699 C.ar      12 UNK        -0.0894 
     11 C11        31.7875   24.8187    6.0943 C.ar      12 UNK        -0.0804 
     12 C12        30.5242   24.2655    6.3257 C.ar      12 UNK        -0.0824 
     13 C13        30.0033   23.3037    5.4553 C.ar      12 UNK        -0.0762 
     14 C14        30.7587   22.8927    4.3552 C.ar      12 UNK        -0.0782 
     15 C15        28.6262   22.7023    5.6946 C.3       12 UNK         0.0230 
     16 S16        27.4427   23.1663    4.3874 S.3       12 UNK        -0.2608 
     17 C17        27.2036   24.9497    4.7019 C.3       12 UNK        -0.0989 
     18 CA         27.6139   25.8422    3.4945 C.3       5 UNK         0.0716 
     19 N          26.9391   25.4993    2.2321 N.am      5 UNK        -0.4135 
     20 C          25.6186   25.4984    2.0024 C.2       4 UNK         0.5031 
     21 O          24.7702   25.8035    2.8423 O.2       4 UNK        -0.5229 
     22 CA         25.1825   25.1444    0.5730 C.3       4 UNK         0.0329 
     23 CB         23.6728   24.8310    0.4760 C.3       4 UNK        -0.2001 
     24 N          25.5430   26.2490   -0.3144 N.am      4 UNK        -0.4303 
     25 C          25.5756   26.1984   -1.6527 C.2       3 UNK         0.5044 
     26 O          25.2826   25.2015   -2.3134 O.2       3 UNK        -0.5152 
     27 CA         26.0457   27.4744   -2.3728 C.3       3 UNK         0.0319 
     28 CB         25.2288   28.7140   -1.9652 C.3       3 UNK        -0.2001 
     29 N          27.4677   27.6989   -2.1120 N.am      3 UNK        -0.4354 
     30 C          28.4529   27.0352   -2.7315 C.2       2 UNK         0.4964 
     31 O          28.2815   26.3184   -3.7183 O.2       2 UNK        -0.5047 
     32 CA         29.8721   27.1521   -2.1434 C.3       2 UNK         0.0288 
     33 CB         30.0681   28.3323   -1.1647 C.3       2 UNK        -0.2113 
     34 N          30.2661   25.8732   -1.5381 N.am      2 UNK        -0.4145 
     35 C          29.6445   25.2509   -0.5247 C.2       1 UNK         0.5006 
     36 O          28.7591   25.7642    0.1664 O.2       1 UNK        -0.5103 
     37 C          27.4803   27.3522    3.7951 C.2       5 UNK         0.5055 
     38 O          27.2378   27.7426    4.9393 O.2       5 UNK        -0.5220 
     39 N          27.6187   28.1794    2.7487 N.am      6 UNK        -0.4450 
     40 CA         27.5186   29.6367    2.8175 C.3       6 UNK         0.0367 
     41 CB         27.1274   30.1841    1.4333 C.3       6 UNK        -0.1929 
     42 C          28.8446   30.2285    3.3117 C.2       6 UNK         0.5070 
     43 O          29.7186   30.5243    2.4953 O.2       6 UNK        -0.5237 
     44 N          28.9955   30.3394    4.6368 N.am      7 UNK        -0.4739 
     45 CA         30.1978   30.8395    5.3100 C.3       7 UNK         0.0276 
     46 CB         29.9634   30.8530    6.8285 C.3       7 UNK        -0.1927 
     47 C          30.6269   32.2321    4.8108 C.2       7 UNK         0.5013 
     48 O          29.7769   33.1160    4.6871 O.2       7 UNK        -0.5193 
     49 N          31.9293   32.3648    4.5294 N.am      8 UNK        -0.4253 
     50 CA         32.6569   33.4727    3.8930 C.3       8 UNK         0.0242 
     51 CB         32.0991   34.8773    4.2019 C.3       8 UNK        -0.2000 
     52 C          32.8648   33.2430    2.3874 C.2       8 UNK         0.4948 
     53 O          33.8664   33.7238    1.8552 O.2       8 UNK        -0.5275 
     54 N          31.9732   32.4808    1.7367 N.am      9 UNK        -0.4246 
     55 CA         32.2316   31.8677    0.4307 C.3       9 UNK         0.0261 
     56 CB         30.9452   31.8327   -0.4122 C.3       9 UNK        -0.1959 
     57 C          32.8117   30.4632    0.6582 C.2       9 UNK         0.5033 
     58 O          33.8926   30.1566    0.1534 O.2       9 UNK        -0.5390 
     59 N          32.1084   29.6661    1.4721 N.am      10 UNK        -0.4215 
     60 CA         32.6060   28.4508    2.1103 C.3       10 UNK         0.0240 
     61 CB         31.4100   27.5286    2.4178 C.3       10 UNK        -0.1982 
     62 C          33.3499   28.8057    3.4099 C.2       10 UNK         0.4970 
     63 O          33.3215   29.9567    3.8557 O.2       10 UNK        -0.4916 
     64 N          33.9613   27.7864    4.0208 N.am      11 UNK        -0.4279 
     65 CA         34.6077   27.8382    5.3455 C.3       11 UNK         0.1003 
     66 C          35.9735   28.5887    5.3806 C.2       11 UNK         0.5709 
     67 N          36.5636   28.9481    4.2468 N.am      11 UNK        -0.7358 
     68 O          36.5283   28.8194    6.4526 O.2       11 UNK        -0.4999 
     69 C69        33.6567   28.2948    6.4982 C.3       12 UNK        -0.0954 
     70 S70        31.9974   27.5311    6.4745 S.3       12 UNK        -0.2268 
     71 C71        32.3574   25.8487    7.0557 C.3       12 UNK         0.0203 
     72 H72        26.6850   21.6251   -0.7569 H         1 UNK         0.0888 
     73 H73        26.2889   22.4722   -2.2532 H         1 UNK         0.0888 
     74 H74        27.1732   20.9438   -2.3101 H         1 UNK         0.0888 
     75 H75        28.3346   22.6765    0.3254 H         1 UNK         0.3017 
     76 H76        30.8059   23.4794   -0.9672 H         1 UNK         0.0873 
     77 H77        29.9442   24.0727    1.9147 H         1 UNK         0.0745 
     78 H78        30.5130   22.5032    1.4075 H         1 UNK         0.0745 
     79 H79        33.8503   23.1866    3.0123 H         1 UNK         0.0705 
     80 H80        32.6238   22.0108    2.6198 H         1 UNK         0.0705 
     81 H81        33.4884   24.8615    4.7788 H         1 UNK         0.1334 
     82 H82        29.9488   24.5846    7.1841 H         1 UNK         0.1417 
     83 H83        30.3553   22.1426    3.6896 H         1 UNK         0.1562 
     84 H84        28.2285   22.9999    6.6661 H         1 UNK         0.0748 
     85 H85        28.7130   21.6151    5.7206 H         1 UNK         0.0748 
     86 H86        27.7758   25.2335    5.5868 H         1 UNK         0.0940 
     87 H87        26.1576   25.1119    4.9662 H         1 UNK         0.0940 
     88 H88        28.6783   25.6758    3.3199 H         1 UNK         0.0703 
     89 H89        27.5629   25.3530    1.4396 H         1 UNK         0.3081 
     90 H90        25.7407   24.2556    0.2708 H         1 UNK         0.0719 
     91 H91        23.0648   25.7102    0.6925 H         1 UNK         0.0809 
     92 H92        23.3981   24.4709   -0.5151 H         1 UNK         0.0809 
     93 H93        23.3896   24.0537    1.1870 H         1 UNK         0.0809 
     94 H94        25.8060   27.1074    0.1465 H         1 UNK         0.2990 
     95 H95        25.8982   27.3247   -3.4449 H         1 UNK         0.0690 
     96 H96        25.5156   29.5834   -2.5571 H         1 UNK         0.0788 
     97 H97        25.3571   28.9729   -0.9153 H         1 UNK         0.0788 
     98 H98        24.1636   28.5485   -2.1325 H         1 UNK         0.0788 
     99 H99        27.7087   28.2564   -1.3072 H         1 UNK         0.2993 
    100 H100       30.5392   27.3163   -2.9912 H         1 UNK         0.0949 
    101 H101       29.4784   28.2357   -0.2540 H         1 UNK         0.0767 
    102 H102       31.1139   28.4103   -0.8698 H         1 UNK         0.0767 
    103 H103       29.7981   29.2777   -1.6363 H         1 UNK         0.0767 
    104 H104       30.9526   25.3476   -2.0612 H         1 UNK         0.3013 
    105 H105       27.8812   27.7818    1.8590 H         1 UNK         0.3121 
    106 H106       26.7309   29.9164    3.5209 H         1 UNK         0.0774 
    107 H107       27.0942   31.2744    1.4440 H         1 UNK         0.0815 
    108 H108       27.8365   29.8911    0.6590 H         1 UNK         0.0815 
    109 H109       26.1376   29.8364    1.1410 H         1 UNK         0.0815 
    110 H110       28.2410   30.0227    5.2303 H         1 UNK         0.2987 
    111 H111       30.9953   30.1258    5.0972 H         1 UNK         0.0949 
    112 H112       29.1481   31.5230    7.1045 H         1 UNK         0.0806 
    113 H113       29.7243   29.8570    7.2020 H         1 UNK         0.0806 
    114 H114       30.8567   31.1886    7.3571 H         1 UNK         0.0806 
    115 H115       32.4916   31.5180    4.5972 H         1 UNK         0.3010 
    116 H116       33.6528   33.4294    4.3372 H         1 UNK         0.0829 
    117 H117       31.9496   35.0231    5.2716 H         1 UNK         0.0813 
    118 H118       32.7922   35.6481    3.8627 H         1 UNK         0.0813 
    119 H119       31.1504   35.0599    3.6963 H         1 UNK         0.0813 
    120 H120       31.1786   32.1195    2.2517 H         1 UNK         0.3038 
    121 H121       32.9702   32.4528   -0.1214 H         1 UNK         0.0769 
    122 H122       31.1408   31.4012   -1.3945 H         1 UNK         0.0811 
    123 H123       30.5542   32.8372   -0.5731 H         1 UNK         0.0811 
    124 H124       30.1569   31.2414    0.0522 H         1 UNK         0.0811 
    125 H125       31.2253   30.0199    1.8428 H         1 UNK         0.3204 
    126 H126       33.2934   27.9361    1.4360 H         1 UNK         0.0748 
    127 H127       30.7226   27.9823    3.1314 H         1 UNK         0.0771 
    128 H128       30.8496   27.2857    1.5163 H         1 UNK         0.0771 
    129 H129       31.7355   26.5843    2.8539 H         1 UNK         0.0771 
    130 H130       33.9528   26.8814    3.5752 H         1 UNK         0.2980 
    131 H131       34.8761   26.8029    5.5542 H         1 UNK         0.0545 
    132 H132       36.1223   28.7648    3.3605 H         1 UNK         0.3459 
    133 H133       37.4524   29.4219    4.2819 H         1 UNK         0.3459 
    134 H134       34.1105   28.0901    7.4694 H         1 UNK         0.0616 
    135 H135       33.5136   29.3759    6.4618 H         1 UNK         0.0616 
    136 H136       33.4319   25.6970    7.1637 H         1 UNK         0.0634 
    137 H137       31.9316   25.7201    8.0518 H         1 UNK         0.0634 
@<TRIPOS>BOND
     1    1    2 1    
     2    1   72 1    
     3    1   73 1    
     4    1   74 1    
     5    2    3 2    
     6    2    4 am   BACKBONE|DICT|INTERRES
     7    4    5 1    
     8    4   75 1    
     9    5    6 1    
    10    5   35 1    
    11    5   76 1    
    12    6    7 1    
    13    6   77 1    
    14    6   78 1    
    15    7    8 1    
    16    8    9 1    
    17    8   79 1    
    18    8   80 1    
    19    9   10 ar   
    20    9   14 ar   
    21   10   11 ar   
    22   10   81 1    
    23   11   12 ar   
    24   11   71 1    
    25   12   13 ar   
    26   12   82 1    
    27   13   14 ar   
    28   13   15 1    
    29   14   83 1    
    30   15   16 1    
    31   15   84 1    
    32   15   85 1    
    33   16   17 1    
    34   17   18 1    
    35   17   86 1    
    36   17   87 1    
    37   18   19 1    
    38   18   37 1    
    39   18   88 1    
    40   19   20 am   BACKBONE|DICT|INTERRES
    41   19   89 1    
    42   20   21 2    
    43   20   22 1    
    44   22   23 1    
    45   22   24 1    
    46   22   90 1    
    47   23   91 1    
    48   23   92 1    
    49   23   93 1    
    50   24   25 am   BACKBONE|DICT|INTERRES
    51   24   94 1    
    52   25   26 2    
    53   25   27 1    
    54   27   28 1    
    55   27   29 1    
    56   27   95 1    
    57   28   96 1    
    58   28   97 1    
    59   28   98 1    
    60   29   30 am   BACKBONE|DICT|INTERRES
    61   29   99 1    
    62   30   31 2    
    63   30   32 1    
    64   32   33 1    
    65   32   34 1    
    66   32  100 1    
    67   33  101 1    
    68   33  102 1    
    69   33  103 1    
    70   34   35 am   BACKBONE|DICT|INTERRES
    71   34  104 1    
    72   35   36 2    
    73   37   38 2    
    74   37   39 am   BACKBONE|DICT|INTERRES
    75   39   40 1    
    76   39  105 1    
    77   40   41 1    
    78   40   42 1    
    79   40  106 1    
    80   41  107 1    
    81   41  108 1    
    82   41  109 1    
    83   42   43 2    
    84   42   44 am   BACKBONE|DICT|INTERRES
    85   44   45 1    
    86   44  110 1    
    87   45   46 1    
    88   45   47 1    
    89   45  111 1    
    90   46  112 1    
    91   46  113 1    
    92   46  114 1    
    93   47   48 2    
    94   47   49 am   BACKBONE|DICT|INTERRES
    95   49   50 1    
    96   49  115 1    
    97   50   51 1    
    98   50   52 1    
    99   50  116 1    
   100   51  117 1    
   101   51  118 1    
   102   51  119 1    
   103   52   53 2    
   104   52   54 am   BACKBONE|DICT|INTERRES
   105   54   55 1    
   106   54  120 1    
   107   55   56 1    
   108   55   57 1    
   109   55  121 1    
   110   56  122 1    
   111   56  123 1    
   112   56  124 1    
   113   57   58 2    
   114   57   59 am   BACKBONE|DICT|INTERRES
   115   59   60 1    
   116   59  125 1    
   117   60   61 1    
   118   60   62 1    
   119   60  126 1    
   120   61  127 1    
   121   61  128 1    
   122   61  129 1    
   123   62   63 2    
   124   62   64 am   BACKBONE|DICT|INTERRES
   125   64   65 1    
   126   64  130 1    
   127   65   66 1    
   128   65   69 1    
   129   65  131 1    
   130   66   67 am   BACKBONE|DICT|INTERRES
   131   66   68 2    
   132   67  132 1    
   133   67  133 1    
   134   69   70 1    
   135   69  134 1    
   136   69  135 1    
   137   70   71 1    
   138   71  136 1    
   139   71  137 1    
@<TRIPOS>SUBSTRUCTURE
     1 UNK         1 GROUP             0       ****    0 ROOT    
