@<TRIPOS>MOLECULE
3R136
137   139    1
SMALL
USER_CHARGES


@<TRIPOS>ATOM
      1 CA         29.2487   27.2966   -1.9508 C.3       0 UNK        -0.1979 
      2 C          29.7706   25.9069   -1.6157 C.2       0 UNK         0.4864 
      3 O          30.6670   25.4128   -2.3001 O.2       0 UNK        -0.5359 
      4 N          29.1995   25.2841   -0.5759 N.am      1 UNK        -0.4318 
      5 CA         29.4583   23.9154   -0.1039 C.3       1 UNK         0.0824 
      6 C6         30.9295   23.6298    0.3093 C.3       12 UNK        -0.0944 
      7 S7         31.5508   24.8201    1.5397 S.3       12 UNK        -0.2672 
      8 C8         31.0754   24.0276    3.1092 C.3       12 UNK         0.0333 
      9 C9         30.4472   25.0342    4.0620 C.ar      12 UNK        -0.0807 
     10 C10        31.1729   26.1584    4.4663 C.ar      12 UNK        -0.0894 
     11 C11        30.6049   27.1004    5.3252 C.ar      12 UNK        -0.0804 
     12 C12        29.3082   26.9020    5.8040 C.ar      12 UNK        -0.0824 
     13 C13        28.5730   25.7767    5.4161 C.ar      12 UNK        -0.0762 
     14 C14        29.1472   24.8454    4.5441 C.ar      12 UNK        -0.0782 
     15 C15        27.1573   25.5756    5.9443 C.3       12 UNK         0.0230 
     16 S16        25.8830   25.6819    4.6420 S.3       12 UNK        -0.2608 
     17 C17        26.3072   27.2389    3.7905 C.3       12 UNK        -0.0989 
     18 CA         26.6767   26.9605    2.3122 C.3       5 UNK         0.0716 
     19 N          25.4691   26.7326    1.5154 N.am      5 UNK        -0.4135 
     20 C          25.4245   26.1694    0.3048 C.2       4 UNK         0.5031 
     21 O          26.3961   25.6572   -0.2633 O.2       4 UNK        -0.5229 
     22 CA         24.0591   26.2134   -0.3931 C.3       4 UNK         0.0329 
     23 CB         23.7985   27.6028   -1.0008 C.3       4 UNK        -0.2001 
     24 N          24.0334   25.2140   -1.4536 N.am      4 UNK        -0.4303 
     25 C          23.0008   24.4225   -1.7665 C.2       3 UNK         0.5044 
     26 O          21.8902   24.5039   -1.2399 O.2       3 UNK        -0.5152 
     27 CA         23.2414   23.3520   -2.8508 C.3       3 UNK         0.0319 
     28 CB         22.6076   23.7848   -4.1831 C.3       3 UNK        -0.2001 
     29 N          24.6599   23.0476   -3.0729 N.am      3 UNK        -0.4354 
     30 C          25.4578   22.4272   -2.1925 C.2       2 UNK         0.4964 
     31 O          25.0672   21.9804   -1.1133 O.2       2 UNK        -0.5047 
     32 CA         26.9467   22.3247   -2.5426 C.3       2 UNK         0.0288 
     33 CB         27.3073   22.7534   -3.9823 C.3       2 UNK        -0.2113 
     34 N          27.6770   23.1491   -1.5856 N.am      2 UNK        -0.4145 
     35 C          28.8953   22.8815   -1.1014 C.2       1 UNK         0.5006 
     36 O          29.5551   21.8883   -1.4169 O.2       1 UNK        -0.5103 
     37 C          27.4965   28.1248    1.7242 C.2       5 UNK         0.5055 
     38 O          26.9198   29.0558    1.1570 O.2       5 UNK        -0.5220 
     39 N          28.8254   28.0632    1.8926 N.am      6 UNK        -0.4450 
     40 CA         29.7558   29.0975    1.4257 C.3       6 UNK         0.0367 
     41 CB         31.1832   28.5306    1.3921 C.3       6 UNK        -0.1929 
     42 C          29.7172   30.3900    2.2601 C.2       6 UNK         0.5070 
     43 O          30.0899   31.4424    1.7411 O.2       6 UNK        -0.5237 
     44 N          29.2938   30.2895    3.5307 N.am      7 UNK        -0.4739 
     45 CA         29.1564   31.3428    4.5542 C.3       7 UNK         0.0276 
     46 CB         28.1508   32.4249    4.1160 C.3       7 UNK        -0.1927 
     47 C          30.4832   31.9749    5.0223 C.2       7 UNK         0.5013 
     48 O          30.6699   32.1541    6.2260 O.2       7 UNK        -0.5193 
     49 N          31.3771   32.2731    4.0779 N.am      8 UNK        -0.4253 
     50 CA         32.7591   32.6930    4.2841 C.3       8 UNK         0.0242 
     51 CB         32.9302   34.1394    3.7774 C.3       8 UNK        -0.2000 
     52 C          33.6601   31.6650    3.5801 C.2       8 UNK         0.4948 
     53 O          33.4004   30.4660    3.7061 O.2       8 UNK        -0.5275 
     54 N          34.6936   32.1275    2.8589 N.am      9 UNK        -0.4246 
     55 CA         35.6589   31.3354    2.0837 C.3       9 UNK         0.0261 
     56 CB         34.9867   30.7363    0.8274 C.3       9 UNK        -0.1959 
     57 C          36.3693   30.2908    2.9632 C.2       9 UNK         0.5033 
     58 O          37.2852   30.6556    3.7015 O.2       9 UNK        -0.5390 
     59 N          35.8989   29.0362    2.9210 N.am      10 UNK        -0.4215 
     60 CA         36.3247   27.9340    3.7888 C.3       10 UNK         0.0240 
     61 CB         35.5884   26.6506    3.3701 C.3       10 UNK        -0.1982 
     62 C          36.1134   28.2084    5.2907 C.2       10 UNK         0.4970 
     63 O          36.8976   27.7143    6.1018 O.2       10 UNK        -0.4916 
     64 N          35.0880   29.0020    5.6283 N.am      11 UNK        -0.4279 
     65 CA         34.8304   29.5004    6.9885 C.3       11 UNK         0.1003 
     66 C          35.5897   30.8183    7.3260 C.2       11 UNK         0.5709 
     67 N          36.3991   31.3853    6.4379 N.am      11 UNK        -0.7358 
     68 O          35.4542   31.3368    8.4317 O.2       11 UNK        -0.4999 
     69 C69        33.3118   29.6292    7.2774 C.3       12 UNK        -0.0954 
     70 S70        32.4422   28.0304    7.1615 S.3       12 UNK        -0.2268 
     71 C71        31.3902   28.3384    5.7171 C.3       12 UNK         0.0203 
     72 H72        30.0414   28.0339   -1.8276 H         1 UNK         0.0888 
     73 H73        28.9083   27.3299   -2.9853 H         1 UNK         0.0888 
     74 H74        28.4134   27.5844   -1.3121 H         1 UNK         0.0888 
     75 H75        28.3848   25.7188   -0.1570 H         1 UNK         0.3017 
     76 H76        28.8503   23.8004    0.7950 H         1 UNK         0.0873 
     77 H77        31.5884   23.6681   -0.5594 H         1 UNK         0.0745 
     78 H78        31.0309   22.6205    0.7126 H         1 UNK         0.0745 
     79 H79        31.9617   23.5925    3.5727 H         1 UNK         0.0705 
     80 H80        30.3872   23.2023    2.9213 H         1 UNK         0.0705 
     81 H81        32.1790   26.3068    4.0990 H         1 UNK         0.1334 
     82 H82        28.8714   27.6270    6.4776 H         1 UNK         0.1417 
     83 H83        28.5763   23.9777    4.2418 H         1 UNK         0.1562 
     84 H84        26.9257   26.3099    6.7175 H         1 UNK         0.0748 
     85 H85        27.0897   24.5986    6.4248 H         1 UNK         0.0748 
     86 H86        27.1164   27.7376    4.3239 H         1 UNK         0.0940 
     87 H87        25.4596   27.9234    3.8611 H         1 UNK         0.0940 
     88 H88        27.2972   26.0625    2.2586 H         1 UNK         0.0703 
     89 H89        24.6235   27.1430    1.8821 H         1 UNK         0.3081 
     90 H90        23.2906   25.9880    0.3497 H         1 UNK         0.0719 
     91 H91        23.8047   28.3784   -0.2338 H         1 UNK         0.0809 
     92 H92        24.5577   27.8679   -1.7379 H         1 UNK         0.0809 
     93 H93        22.8265   27.6429   -1.4929 H         1 UNK         0.0809 
     94 H94        24.9260   25.0494   -1.8971 H         1 UNK         0.2990 
     95 H95        22.7473   22.4365   -2.5183 H         1 UNK         0.0690 
     96 H96        23.0684   24.6931   -4.5738 H         1 UNK         0.0788 
     97 H97        21.5424   23.9870   -4.0612 H         1 UNK         0.0788 
     98 H98        22.7022   23.0060   -4.9401 H         1 UNK         0.0788 
     99 H99        25.0648   23.3771   -3.9378 H         1 UNK         0.2993 
    100 H100       27.2226   21.2758   -2.4121 H         1 UNK         0.0949 
    101 H101       27.1055   23.8105   -4.1605 H         1 UNK         0.0767 
    102 H102       28.3669   22.5888   -4.1803 H         1 UNK         0.0767 
    103 H103       26.7545   22.1713   -4.7210 H         1 UNK         0.0767 
    104 H104       27.1871   23.9626   -1.2269 H         1 UNK         0.3013 
    105 H105       29.2319   27.2726    2.3748 H         1 UNK         0.3121 
    106 H106       29.4789   29.3690    0.4047 H         1 UNK         0.0774 
    107 H107       31.5219   28.2184    2.3800 H         1 UNK         0.0815 
    108 H108       31.2553   27.6752    0.7212 H         1 UNK         0.0815 
    109 H109       31.8880   29.2802    1.0316 H         1 UNK         0.0815 
    110 H110       29.0532   29.3613    3.8454 H         1 UNK         0.2987 
    111 H111       28.7318   30.8453    5.4280 H         1 UNK         0.0949 
    112 H112       27.1865   31.9877    3.8569 H         1 UNK         0.0806 
    113 H113       27.9769   33.1413    4.9200 H         1 UNK         0.0806 
    114 H114       28.5057   32.9889    3.2530 H         1 UNK         0.0806 
    115 H115       31.1156   32.0446    3.1203 H         1 UNK         0.3010 
    116 H116       33.0127   32.6610    5.3457 H         1 UNK         0.0829 
    117 H117       32.2257   34.8091    4.2712 H         1 UNK         0.0813 
    118 H118       33.9288   34.5229    3.9904 H         1 UNK         0.0813 
    119 H119       32.7581   34.2182    2.7029 H         1 UNK         0.0813 
    120 H120       34.8443   33.1264    2.8448 H         1 UNK         0.3038 
    121 H121       36.4319   32.0265    1.7439 H         1 UNK         0.0769 
    122 H122       35.6951   30.1442    0.2463 H         1 UNK         0.0811 
    123 H123       34.6179   31.5252    0.1718 H         1 UNK         0.0811 
    124 H124       34.1397   30.0957    1.0712 H         1 UNK         0.0811 
    125 H125       35.1051   28.8585    2.3229 H         1 UNK         0.3204 
    126 H126       37.3950   27.7862    3.6308 H         1 UNK         0.0748 
    127 H127       35.8933   25.8051    3.9885 H         1 UNK         0.0771 
    128 H128       34.5074   26.7549    3.4707 H         1 UNK         0.0771 
    129 H129       35.8052   26.3870    2.3347 H         1 UNK         0.0771 
    130 H130       34.4966   29.3857    4.8965 H         1 UNK         0.2980 
    131 H131       35.2195   28.7674    7.6976 H         1 UNK         0.0545 
    132 H132       36.8815   32.2313    6.6954 H         1 UNK         0.3459 
    133 H133       36.5795   30.9658    5.5328 H         1 UNK         0.3459 
    134 H134       33.1412   30.0086    8.2863 H         1 UNK         0.0616 
    135 H135       32.8560   30.3548    6.6017 H         1 UNK         0.0616 
    136 H136       32.0069   28.6620    4.8792 H         1 UNK         0.0634 
    137 H137       30.7113   29.1600    5.9442 H         1 UNK         0.0634 
@<TRIPOS>BOND
     1    1    2 1    
     2    1   72 1    
     3    1   73 1    
     4    1   74 1    
     5    2    3 2    
     6    2    4 am   BACKBONE|DICT|INTERRES
     7    4    5 1    
     8    4   75 1    
     9    5    6 1    
    10    5   35 1    
    11    5   76 1    
    12    6    7 1    
    13    6   77 1    
    14    6   78 1    
    15    7    8 1    
    16    8    9 1    
    17    8   79 1    
    18    8   80 1    
    19    9   10 ar   
    20    9   14 ar   
    21   10   11 ar   
    22   10   81 1    
    23   11   12 ar   
    24   11   71 1    
    25   12   13 ar   
    26   12   82 1    
    27   13   14 ar   
    28   13   15 1    
    29   14   83 1    
    30   15   16 1    
    31   15   84 1    
    32   15   85 1    
    33   16   17 1    
    34   17   18 1    
    35   17   86 1    
    36   17   87 1    
    37   18   19 1    
    38   18   37 1    
    39   18   88 1    
    40   19   20 am   BACKBONE|DICT|INTERRES
    41   19   89 1    
    42   20   21 2    
    43   20   22 1    
    44   22   23 1    
    45   22   24 1    
    46   22   90 1    
    47   23   91 1    
    48   23   92 1    
    49   23   93 1    
    50   24   25 am   BACKBONE|DICT|INTERRES
    51   24   94 1    
    52   25   26 2    
    53   25   27 1    
    54   27   28 1    
    55   27   29 1    
    56   27   95 1    
    57   28   96 1    
    58   28   97 1    
    59   28   98 1    
    60   29   30 am   BACKBONE|DICT|INTERRES
    61   29   99 1    
    62   30   31 2    
    63   30   32 1    
    64   32   33 1    
    65   32   34 1    
    66   32  100 1    
    67   33  101 1    
    68   33  102 1    
    69   33  103 1    
    70   34   35 am   BACKBONE|DICT|INTERRES
    71   34  104 1    
    72   35   36 2    
    73   37   38 2    
    74   37   39 am   BACKBONE|DICT|INTERRES
    75   39   40 1    
    76   39  105 1    
    77   40   41 1    
    78   40   42 1    
    79   40  106 1    
    80   41  107 1    
    81   41  108 1    
    82   41  109 1    
    83   42   43 2    
    84   42   44 am   BACKBONE|DICT|INTERRES
    85   44   45 1    
    86   44  110 1    
    87   45   46 1    
    88   45   47 1    
    89   45  111 1    
    90   46  112 1    
    91   46  113 1    
    92   46  114 1    
    93   47   48 2    
    94   47   49 am   BACKBONE|DICT|INTERRES
    95   49   50 1    
    96   49  115 1    
    97   50   51 1    
    98   50   52 1    
    99   50  116 1    
   100   51  117 1    
   101   51  118 1    
   102   51  119 1    
   103   52   53 2    
   104   52   54 am   BACKBONE|DICT|INTERRES
   105   54   55 1    
   106   54  120 1    
   107   55   56 1    
   108   55   57 1    
   109   55  121 1    
   110   56  122 1    
   111   56  123 1    
   112   56  124 1    
   113   57   58 2    
   114   57   59 am   BACKBONE|DICT|INTERRES
   115   59   60 1    
   116   59  125 1    
   117   60   61 1    
   118   60   62 1    
   119   60  126 1    
   120   61  127 1    
   121   61  128 1    
   122   61  129 1    
   123   62   63 2    
   124   62   64 am   BACKBONE|DICT|INTERRES
   125   64   65 1    
   126   64  130 1    
   127   65   66 1    
   128   65   69 1    
   129   65  131 1    
   130   66   67 am   BACKBONE|DICT|INTERRES
   131   66   68 2    
   132   67  132 1    
   133   67  133 1    
   134   69   70 1    
   135   69  134 1    
   136   69  135 1    
   137   70   71 1    
   138   71  136 1    
   139   71  137 1    
@<TRIPOS>SUBSTRUCTURE
     1 UNK         1 GROUP             0       ****    0 ROOT    
