@<TRIPOS>MOLECULE
3R136
137   139    1
SMALL
USER_CHARGES


@<TRIPOS>ATOM
      1 CA         31.5753   20.3464   -3.4340 C.3       0 UNK        -0.1979 
      2 C          31.1686   21.7115   -2.8985 C.2       0 UNK         0.4864 
      3 O          31.3736   22.7202   -3.5761 O.2       0 UNK        -0.5359 
      4 N          30.6036   21.7516   -1.6852 N.am      1 UNK        -0.4318 
      5 CA         30.1091   22.9676   -1.0312 C.3       1 UNK         0.0824 
      6 C6         29.8489   22.7506    0.4809 C.3       12 UNK        -0.0944 
      7 S7         31.3230   22.1831    1.3917 S.3       12 UNK        -0.2672 
      8 C8         32.0772   23.7679    1.8987 C.3       12 UNK         0.0333 
      9 C9         31.2827   24.6082    2.9028 C.ar      12 UNK        -0.0807 
     10 C10        31.6404   25.9504    3.0635 C.ar      12 UNK        -0.0894 
     11 C11        30.9724   26.7713    3.9757 C.ar      12 UNK        -0.0804 
     12 C12        29.9288   26.2354    4.7365 C.ar      12 UNK        -0.0824 
     13 C13        29.5535   24.8964    4.5927 C.ar      12 UNK        -0.0762 
     14 C14        30.2380   24.0873    3.6805 C.ar      12 UNK        -0.0782 
     15 C15        28.4278   24.3145    5.4407 C.3       12 UNK         0.0230 
     16 S16        26.7992   24.4447    4.6272 S.3       12 UNK        -0.2608 
     17 C17        26.4986   26.2419    4.7049 C.3       12 UNK        -0.0989 
     18 CA         26.7545   26.9082    3.3216 C.3       5 UNK         0.0716 
     19 N          25.5932   26.8500    2.4224 N.am      5 UNK        -0.4135 
     20 C          24.4391   27.5254    2.5672 C.2       4 UNK         0.5031 
     21 O          24.1701   28.2152    3.5516 O.2       4 UNK        -0.5229 
     22 CA         23.4138   27.4718    1.4165 C.3       4 UNK         0.0329 
     23 CB         23.3666   28.8258    0.6870 C.3       4 UNK        -0.2001 
     24 N          23.6783   26.4211    0.4337 N.am      4 UNK        -0.4303 
     25 C          23.4571   25.1146    0.6278 C.2       3 UNK         0.5044 
     26 O          22.9226   24.6524    1.6362 O.2       3 UNK        -0.5152 
     27 CA         23.9323   24.1571   -0.4820 C.3       3 UNK         0.0319 
     28 CB         22.7552   23.7658   -1.3903 C.3       3 UNK        -0.2001 
     29 N          25.0346   24.6647   -1.3133 N.am      3 UNK        -0.4354 
     30 C          26.2440   25.0228   -0.8601 C.2       2 UNK         0.4964 
     31 O          26.5431   25.0817    0.3350 O.2       2 UNK        -0.5047 
     32 CA         27.2945   25.4195   -1.9087 C.3       2 UNK         0.0288 
     33 CB         27.4716   26.9476   -1.9420 C.3       2 UNK        -0.2113 
     34 N          28.5749   24.7914   -1.5835 N.am      2 UNK        -0.4145 
     35 C          28.8188   23.4794   -1.7022 C.2       1 UNK         0.5006 
     36 O          28.0478   22.6858   -2.2508 O.2       1 UNK        -0.5103 
     37 C          27.3233   28.3435    3.3982 C.2       5 UNK         0.5055 
     38 O          27.5549   28.8791    4.4834 O.2       5 UNK        -0.5220 
     39 N          27.5312   28.9382    2.2174 N.am      6 UNK        -0.4450 
     40 CA         28.0706   30.2832    2.0260 C.3       6 UNK         0.0367 
     41 CB         26.9129   31.2974    1.9436 C.3       6 UNK        -0.1929 
     42 C          28.9853   30.3072    0.7907 C.2       6 UNK         0.5070 
     43 O          28.9652   31.2726    0.0268 O.2       6 UNK        -0.5237 
     44 N          29.7580   29.2266    0.5990 N.am      7 UNK        -0.4739 
     45 CA         30.6826   29.0497   -0.5276 C.3       7 UNK         0.0276 
     46 CB         31.1630   27.5893   -0.5581 C.3       7 UNK        -0.1927 
     47 C          31.8894   30.0057   -0.4899 C.2       7 UNK         0.5013 
     48 O          32.4172   30.3575   -1.5454 O.2       7 UNK        -0.5193 
     49 N          32.2965   30.4030    0.7195 N.am      8 UNK        -0.4253 
     50 CA         33.3828   31.3263    1.0228 C.3       8 UNK         0.0242 
     51 CB         34.7456   30.6372    0.8059 C.3       8 UNK        -0.2000 
     52 C          33.2206   31.7625    2.4830 C.2       8 UNK         0.4948 
     53 O          32.4939   31.1104    3.2359 O.2       8 UNK        -0.5275 
     54 N          33.9330   32.8248    2.8776 N.am      9 UNK        -0.4246 
     55 CA         33.9934   33.3013    4.2660 C.3       9 UNK         0.0261 
     56 CB         34.5310   34.7420    4.2798 C.3       9 UNK        -0.1959 
     57 C          34.8422   32.4027    5.1888 C.2       9 UNK         0.5033 
     58 O          34.7355   32.5222    6.4104 O.2       9 UNK        -0.5390 
     59 N          35.6699   31.5284    4.5963 N.am      10 UNK        -0.4215 
     60 CA         36.6330   30.6440    5.2599 C.3       10 UNK         0.0240 
     61 CB         37.4112   29.8628    4.1878 C.3       10 UNK        -0.1982 
     62 C          36.0376   29.6754    6.2983 C.2       10 UNK         0.4970 
     63 O          36.7603   29.2759    7.2125 O.2       10 UNK        -0.4916 
     64 N          34.7534   29.3196    6.1562 N.am      11 UNK        -0.4279 
     65 CA         34.0135   28.5182    7.1431 C.3       11 UNK         0.1003 
     66 C          33.5985   29.2919    8.4319 C.2       11 UNK         0.5709 
     67 N          33.7536   30.6100    8.5060 N.am      11 UNK        -0.7358 
     68 O          33.1437   28.6774    9.3942 O.2       11 UNK        -0.4999 
     69 C69        32.8333   27.7446    6.4983 C.3       12 UNK        -0.0954 
     70 S70        31.5077   28.8123    5.8367 S.3       12 UNK        -0.2268 
     71 C71        31.3791   28.2365    4.1114 C.3       12 UNK         0.0203 
     72 H72        31.3521   19.5480   -2.7264 H         1 UNK         0.0888 
     73 H73        32.6453   20.3273   -3.6397 H         1 UNK         0.0888 
     74 H74        31.0452   20.1347   -4.3621 H         1 UNK         0.0888 
     75 H75        30.4523   20.8928   -1.1761 H         1 UNK         0.3017 
     76 H76        30.8750   23.7386   -1.1427 H         1 UNK         0.0873 
     77 H77        29.0640   22.0058    0.6285 H         1 UNK         0.0745 
     78 H78        29.4764   23.6665    0.9440 H         1 UNK         0.0745 
     79 H79        33.0533   23.5520    2.3349 H         1 UNK         0.0705 
     80 H80        32.2670   24.3567    0.9998 H         1 UNK         0.0705 
     81 H81        32.4526   26.3572    2.4765 H         1 UNK         0.1334 
     82 H82        29.4118   26.8665    5.4457 H         1 UNK         0.1417 
     83 H83        29.9498   23.0500    3.5858 H         1 UNK         0.1562 
     84 H84        28.3927   24.8050    6.4148 H         1 UNK         0.0748 
     85 H85        28.6300   23.2620    5.6452 H         1 UNK         0.0748 
     86 H86        27.1271   26.6552    5.4934 H         1 UNK         0.0940 
     87 H87        25.4767   26.4140    5.0442 H         1 UNK         0.0940 
     88 H88        27.5409   26.3423    2.8182 H         1 UNK         0.0703 
     89 H89        25.7221   26.2638    1.6020 H         1 UNK         0.3081 
     90 H90        22.4337   27.2889    1.8623 H         1 UNK         0.0719 
     91 H91        23.1320   29.6356    1.3795 H         1 UNK         0.0809 
     92 H92        24.3214   29.0669    0.2178 H         1 UNK         0.0809 
     93 H93        22.5989   28.8338   -0.0870 H         1 UNK         0.0809 
     94 H94        24.1061   26.7049   -0.4354 H         1 UNK         0.2990 
     95 H95        24.2940   23.2537    0.0136 H         1 UNK         0.0690 
     96 H96        23.0458   23.0013   -2.1113 H         1 UNK         0.0788 
     97 H97        22.3702   24.6230   -1.9441 H         1 UNK         0.0788 
     98 H98        21.9290   23.3578   -0.8060 H         1 UNK         0.0788 
     99 H99        24.8738   24.6654   -2.3109 H         1 UNK         0.2993 
    100 H100       26.9759   25.0769   -2.8959 H         1 UNK         0.0949 
    101 H101       27.7775   27.3440   -0.9730 H         1 UNK         0.0767 
    102 H102       28.2218   27.2439   -2.6756 H         1 UNK         0.0767 
    103 H103       26.5393   27.4429   -2.2168 H         1 UNK         0.0767 
    104 H104       29.2369   25.3632   -1.0829 H         1 UNK         0.3013 
    105 H105       27.3087   28.4299    1.3729 H         1 UNK         0.3121 
    106 H106       28.7021   30.5501    2.8764 H         1 UNK         0.0774 
    107 H107       26.2669   31.1007    1.0872 H         1 UNK         0.0815 
    108 H108       26.2958   31.2672    2.8418 H         1 UNK         0.0815 
    109 H109       27.2891   32.3164    1.8451 H         1 UNK         0.0815 
    110 H110       29.7200   28.4809    1.2784 H         1 UNK         0.2987 
    111 H111       30.1327   29.2517   -1.4498 H         1 UNK         0.0949 
    112 H112       30.3262   26.8959   -0.6127 H         1 UNK         0.0806 
    113 H113       31.7937   27.4059   -1.4293 H         1 UNK         0.0806 
    114 H114       31.7501   27.3388    0.3256 H         1 UNK         0.0806 
    115 H115       31.7829   30.1067    1.5404 H         1 UNK         0.3010 
    116 H116       33.2958   32.2041    0.3792 H         1 UNK         0.0829 
    117 H117       35.5725   31.3135    1.0249 H         1 UNK         0.0813 
    118 H118       34.8692   30.3122   -0.2272 H         1 UNK         0.0813 
    119 H119       34.8590   29.7603    1.4448 H         1 UNK         0.0813 
    120 H120       34.4967   33.3202    2.2004 H         1 UNK         0.3038 
    121 H121       32.9791   33.3128    4.6716 H         1 UNK         0.0769 
    122 H122       34.5565   35.1393    5.2957 H         1 UNK         0.0811 
    123 H123       33.8995   35.4075    3.6910 H         1 UNK         0.0811 
    124 H124       35.5452   34.8000    3.8825 H         1 UNK         0.0811 
    125 H125       35.6772   31.5144    3.5881 H         1 UNK         0.3204 
    126 H126       37.3379   31.2849    5.7935 H         1 UNK         0.0748 
    127 H127       38.1601   29.2129    4.6432 H         1 UNK         0.0771 
    128 H128       36.7519   29.2310    3.5908 H         1 UNK         0.0771 
    129 H129       37.9396   30.5338    3.5102 H         1 UNK         0.0771 
    130 H130       34.2106   29.7094    5.3995 H         1 UNK         0.2980 
    131 H131       34.7026   27.7496    7.4987 H         1 UNK         0.0545 
    132 H132       34.1253   31.1423    7.7262 H         1 UNK         0.3459 
    133 H133       33.4851   31.0871    9.3515 H         1 UNK         0.3459 
    134 H134       32.3848   27.0632    7.2234 H         1 UNK         0.0616 
    135 H135       33.2168   27.1064    5.7009 H         1 UNK         0.0616 
    136 H136       30.6411   28.8535    3.5982 H         1 UNK         0.0634 
    137 H137       32.3349   28.4183    3.6174 H         1 UNK         0.0634 
@<TRIPOS>BOND
     1    1    2 1    
     2    1   72 1    
     3    1   73 1    
     4    1   74 1    
     5    2    3 2    
     6    2    4 am   BACKBONE|DICT|INTERRES
     7    4    5 1    
     8    4   75 1    
     9    5    6 1    
    10    5   35 1    
    11    5   76 1    
    12    6    7 1    
    13    6   77 1    
    14    6   78 1    
    15    7    8 1    
    16    8    9 1    
    17    8   79 1    
    18    8   80 1    
    19    9   10 ar   
    20    9   14 ar   
    21   10   11 ar   
    22   10   81 1    
    23   11   12 ar   
    24   11   71 1    
    25   12   13 ar   
    26   12   82 1    
    27   13   14 ar   
    28   13   15 1    
    29   14   83 1    
    30   15   16 1    
    31   15   84 1    
    32   15   85 1    
    33   16   17 1    
    34   17   18 1    
    35   17   86 1    
    36   17   87 1    
    37   18   19 1    
    38   18   37 1    
    39   18   88 1    
    40   19   20 am   BACKBONE|DICT|INTERRES
    41   19   89 1    
    42   20   21 2    
    43   20   22 1    
    44   22   23 1    
    45   22   24 1    
    46   22   90 1    
    47   23   91 1    
    48   23   92 1    
    49   23   93 1    
    50   24   25 am   BACKBONE|DICT|INTERRES
    51   24   94 1    
    52   25   26 2    
    53   25   27 1    
    54   27   28 1    
    55   27   29 1    
    56   27   95 1    
    57   28   96 1    
    58   28   97 1    
    59   28   98 1    
    60   29   30 am   BACKBONE|DICT|INTERRES
    61   29   99 1    
    62   30   31 2    
    63   30   32 1    
    64   32   33 1    
    65   32   34 1    
    66   32  100 1    
    67   33  101 1    
    68   33  102 1    
    69   33  103 1    
    70   34   35 am   BACKBONE|DICT|INTERRES
    71   34  104 1    
    72   35   36 2    
    73   37   38 2    
    74   37   39 am   BACKBONE|DICT|INTERRES
    75   39   40 1    
    76   39  105 1    
    77   40   41 1    
    78   40   42 1    
    79   40  106 1    
    80   41  107 1    
    81   41  108 1    
    82   41  109 1    
    83   42   43 2    
    84   42   44 am   BACKBONE|DICT|INTERRES
    85   44   45 1    
    86   44  110 1    
    87   45   46 1    
    88   45   47 1    
    89   45  111 1    
    90   46  112 1    
    91   46  113 1    
    92   46  114 1    
    93   47   48 2    
    94   47   49 am   BACKBONE|DICT|INTERRES
    95   49   50 1    
    96   49  115 1    
    97   50   51 1    
    98   50   52 1    
    99   50  116 1    
   100   51  117 1    
   101   51  118 1    
   102   51  119 1    
   103   52   53 2    
   104   52   54 am   BACKBONE|DICT|INTERRES
   105   54   55 1    
   106   54  120 1    
   107   55   56 1    
   108   55   57 1    
   109   55  121 1    
   110   56  122 1    
   111   56  123 1    
   112   56  124 1    
   113   57   58 2    
   114   57   59 am   BACKBONE|DICT|INTERRES
   115   59   60 1    
   116   59  125 1    
   117   60   61 1    
   118   60   62 1    
   119   60  126 1    
   120   61  127 1    
   121   61  128 1    
   122   61  129 1    
   123   62   63 2    
   124   62   64 am   BACKBONE|DICT|INTERRES
   125   64   65 1    
   126   64  130 1    
   127   65   66 1    
   128   65   69 1    
   129   65  131 1    
   130   66   67 am   BACKBONE|DICT|INTERRES
   131   66   68 2    
   132   67  132 1    
   133   67  133 1    
   134   69   70 1    
   135   69  134 1    
   136   69  135 1    
   137   70   71 1    
   138   71  136 1    
   139   71  137 1    
@<TRIPOS>SUBSTRUCTURE
     1 UNK         1 GROUP             0       ****    0 ROOT    
