@<TRIPOS>MOLECULE
3R136
137   139    1
SMALL
USER_CHARGES


@<TRIPOS>ATOM
      1 CA         31.5227   25.9687    0.3029 C.3       0 UNK        -0.1979 
      2 C          30.2425   25.1521    0.3711 C.2       0 UNK         0.4864 
      3 O          29.1571   25.7194    0.2362 O.2       0 UNK        -0.5359 
      4 N          30.3613   23.8311    0.5737 N.am      1 UNK        -0.4318 
      5 CA         29.2553   22.8781    0.7464 C.3       1 UNK         0.0824 
      6 C6         29.7361   21.4204    1.0002 C.3       12 UNK        -0.0944 
      7 S7         31.1571   21.2576    2.1321 S.3       12 UNK        -0.2672 
      8 C8         30.3420   20.9363    3.7262 C.3       12 UNK         0.0333 
      9 C9         29.7901   22.2136    4.3393 C.ar      12 UNK        -0.0807 
     10 C10        30.6635   23.2417    4.7016 C.ar      12 UNK        -0.0894 
     11 C11        30.1797   24.4197    5.2738 C.ar      12 UNK        -0.0804 
     12 C12        28.8078   24.5608    5.5030 C.ar      12 UNK        -0.0824 
     13 C13        27.9241   23.5316    5.1573 C.ar      12 UNK        -0.0762 
     14 C14        28.4197   22.3638    4.5680 C.ar      12 UNK        -0.0782 
     15 C15        26.4360   23.6586    5.4470 C.3       12 UNK         0.0230 
     16 S16        25.5002   24.1841    3.9785 S.3       12 UNK        -0.2608 
     17 C17        25.9628   25.9450    3.8617 C.3       12 UNK        -0.0989 
     18 CA         26.8656   26.2418    2.6325 C.3       5 UNK         0.0716 
     19 N          26.2390   25.8892    1.3518 N.am      5 UNK        -0.4135 
     20 C          25.1255   26.4268    0.8320 C.2       4 UNK         0.5031 
     21 O          24.4705   27.3252    1.3647 O.2       4 UNK        -0.5229 
     22 CA         24.6665   25.8374   -0.5124 C.3       4 UNK         0.0329 
     23 CB         23.4258   26.5420   -1.1034 C.3       4 UNK        -0.2001 
     24 N          25.7565   25.7714   -1.4892 N.am      4 UNK        -0.4303 
     25 C          26.4308   26.7869   -2.0523 C.2       3 UNK         0.5044 
     26 O          26.1993   27.9742   -1.8229 O.2       3 UNK        -0.5152 
     27 CA         27.5489   26.4126   -3.0505 C.3       3 UNK         0.0319 
     28 CB         28.7439   27.3795   -2.9902 C.3       3 UNK        -0.2001 
     29 N          28.0444   25.0514   -2.8422 N.am      3 UNK        -0.4354 
     30 C          27.5364   23.9434   -3.3972 C.2       2 UNK         0.4964 
     31 O          26.6256   23.9502   -4.2249 O.2       2 UNK        -0.5047 
     32 CA         28.1099   22.5966   -2.9242 C.3       2 UNK         0.0288 
     33 CB         29.0433   22.0050   -3.9933 C.3       2 UNK        -0.2113 
     34 N          28.8310   22.6677   -1.6489 N.am      2 UNK        -0.4145 
     35 C          28.2789   22.8977   -0.4468 C.2       1 UNK         0.5006 
     36 O          27.0854   23.1493   -0.2683 O.2       1 UNK        -0.5103 
     37 C          27.3731   27.6987    2.6122 C.2       5 UNK         0.5055 
     38 O          26.9906   28.5057    3.4642 O.2       5 UNK        -0.5220 
     39 N          28.2193   28.0182    1.6243 N.am      6 UNK        -0.4450 
     40 CA         28.8102   29.3417    1.4089 C.3       6 UNK         0.0367 
     41 CB         29.2862   29.4500   -0.0491 C.3       6 UNK        -0.1929 
     42 C          29.9345   29.6419    2.4184 C.2       6 UNK         0.5070 
     43 O          31.0961   29.7693    2.0349 O.2       6 UNK        -0.5237 
     44 N          29.5610   29.7403    3.6987 N.am      7 UNK        -0.4739 
     45 CA         30.4574   29.9712    4.8337 C.3       7 UNK         0.0276 
     46 CB         29.7892   29.4204    6.1043 C.3       7 UNK        -0.1927 
     47 C          30.8751   31.4407    5.0232 C.2       7 UNK         0.5013 
     48 O          31.6984   31.7128    5.8985 O.2       7 UNK        -0.5193 
     49 N          30.2984   32.3595    4.2333 N.am      8 UNK        -0.4253 
     50 CA         30.5942   33.7951    4.2355 C.3       8 UNK         0.0242 
     51 CB         29.6853   34.5027    3.2173 C.3       8 UNK        -0.2000 
     52 C          32.0756   34.0722    3.9277 C.2       8 UNK         0.4948 
     53 O          32.6037   33.5275    2.9560 O.2       8 UNK        -0.5275 
     54 N          32.7163   34.8885    4.7759 N.am      9 UNK        -0.4246 
     55 CA         34.1566   35.1782    4.8452 C.3       9 UNK         0.0261 
     56 CB         34.6985   35.8036    3.5432 C.3       9 UNK        -0.1959 
     57 C          34.9871   33.9603    5.2917 C.2       9 UNK         0.5033 
     58 O          35.6551   34.0368    6.3241 O.2       9 UNK        -0.5390 
     59 N          34.9062   32.8598    4.5379 N.am      10 UNK        -0.4215 
     60 CA         35.4877   31.5578    4.8469 C.3       10 UNK         0.0240 
     61 CB         37.0076   31.5626    4.5928 C.3       10 UNK        -0.1982 
     62 C          34.7923   30.5054    3.9779 C.2       10 UNK         0.4970 
     63 O          34.5416   30.7691    2.8006 O.2       10 UNK        -0.4916 
     64 N          34.5258   29.3302    4.5598 N.am      11 UNK        -0.4279 
     65 CA         33.9171   28.1794    3.8702 C.3       11 UNK         0.1003 
     66 C          34.8887   27.4006    2.9317 C.2       11 UNK         0.5709 
     67 N          36.1949   27.6371    2.9842 N.am      11 UNK        -0.7358 
     68 O          34.4542   26.5757    2.1327 O.2       11 UNK        -0.4999 
     69 C69        33.2023   27.2453    4.8864 C.3       12 UNK        -0.0954 
     70 S70        31.7338   26.4208    4.1898 S.3       12 UNK        -0.2268 
     71 C71        31.1561   25.5187    5.6573 C.3       12 UNK         0.0203 
     72 H72        31.4917   26.7756    1.0354 H         1 UNK         0.0888 
     73 H73        32.4047   25.3629    0.5100 H         1 UNK         0.0888 
     74 H74        31.6349   26.4111   -0.6862 H         1 UNK         0.0888 
     75 H75        31.2817   23.4333    0.7001 H         1 UNK         0.3017 
     76 H76        28.7001   23.2070    1.6275 H         1 UNK         0.0873 
     77 H77        28.9081   20.8137    1.3718 H         1 UNK         0.0745 
     78 H78        30.0504   20.9447    0.0691 H         1 UNK         0.0745 
     79 H79        29.5627   20.1832    3.6003 H         1 UNK         0.0705 
     80 H80        31.0736   20.5067    4.4118 H         1 UNK         0.0705 
     81 H81        31.7252   23.1286    4.5276 H         1 UNK         0.1334 
     82 H82        28.4317   25.4653    5.9608 H         1 UNK         0.1417 
     83 H83        27.7368   21.5691    4.2993 H         1 UNK         0.1562 
     84 H84        26.2573   24.3534    6.2693 H         1 UNK         0.0748 
     85 H85        26.0478   22.6951    5.7806 H         1 UNK         0.0748 
     86 H86        26.4616   26.2483    4.7832 H         1 UNK         0.0940 
     87 H87        25.0464   26.5360    3.8221 H         1 UNK         0.0940 
     88 H88        27.7555   25.6157    2.7199 H         1 UNK         0.0703 
     89 H89        26.7181   25.1774    0.8142 H         1 UNK         0.3081 
     90 H90        24.3844   24.8037   -0.3060 H         1 UNK         0.0719 
     91 H91        23.6084   27.6005   -1.2912 H         1 UNK         0.0809 
     92 H92        23.1179   26.0824   -2.0424 H         1 UNK         0.0809 
     93 H93        22.5796   26.4773   -0.4184 H         1 UNK         0.0809 
     94 H94        26.0619   24.8362   -1.7218 H         1 UNK         0.2990 
     95 H95        27.1125   26.4898   -4.0484 H         1 UNK         0.0690 
     96 H96        29.4778   27.1464   -3.7617 H         1 UNK         0.0788 
     97 H97        29.2483   27.3269   -2.0264 H         1 UNK         0.0788 
     98 H98        28.4313   28.4124   -3.1476 H         1 UNK         0.0788 
     99 H99        28.7547   24.9462   -2.1311 H         1 UNK         0.2993 
    100 H100       27.2645   21.9177   -2.7919 H         1 UNK         0.0949 
    101 H101       28.5287   21.9057   -4.9503 H         1 UNK         0.0767 
    102 H102       29.9190   22.6342   -4.1582 H         1 UNK         0.0767 
    103 H103       29.3908   21.0107   -3.7113 H         1 UNK         0.0767 
    104 H104       29.8270   22.5049   -1.6891 H         1 UNK         0.3013 
    105 H105       28.5190   27.2729    0.9966 H         1 UNK         0.3121 
    106 H106       28.0329   30.0948    1.5553 H         1 UNK         0.0774 
    107 H107       30.0548   28.7111   -0.2766 H         1 UNK         0.0815 
    108 H108       29.7105   30.4345   -0.2501 H         1 UNK         0.0815 
    109 H109       28.4581   29.3086   -0.7431 H         1 UNK         0.0815 
    110 H110       28.5828   29.5610    3.9102 H         1 UNK         0.2987 
    111 H111       31.3758   29.4112    4.6616 H         1 UNK         0.0949 
    112 H112       28.8759   29.9648    6.3471 H         1 UNK         0.0806 
    113 H113       29.5315   28.3675    5.9909 H         1 UNK         0.0806 
    114 H114       30.4562   29.4987    6.9640 H         1 UNK         0.0806 
    115 H115       29.6530   32.0286    3.5324 H         1 UNK         0.3010 
    116 H116       30.3594   34.1752    5.2320 H         1 UNK         0.0829 
    117 H117       29.8566   34.1385    2.2033 H         1 UNK         0.0813 
    118 H118       28.6313   34.3566    3.4542 H         1 UNK         0.0813 
    119 H119       29.8691   35.5780    3.2119 H         1 UNK         0.0813 
    120 H120       32.1799   35.2661    5.5454 H         1 UNK         0.3038 
    121 H121       34.2636   35.9316    5.6275 H         1 UNK         0.0769 
    122 H122       34.6644   35.1111    2.7021 H         1 UNK         0.0811 
    123 H123       35.7389   36.1069    3.6658 H         1 UNK         0.0811 
    124 H124       34.1324   36.6929    3.2666 H         1 UNK         0.0811 
    125 H125       34.2788   32.8743    3.7339 H         1 UNK         0.3204 
    126 H126       35.2944   31.3339    5.8983 H         1 UNK         0.0748 
    127 H127       37.4430   30.5848    4.8018 H         1 UNK         0.0771 
    128 H128       37.2398   31.8104    3.5562 H         1 UNK         0.0771 
    129 H129       37.5187   32.2838    5.2306 H         1 UNK         0.0771 
    130 H130       34.7898   29.1837    5.5230 H         1 UNK         0.2980 
    131 H131       33.1533   28.5911    3.2091 H         1 UNK         0.0545 
    132 H132       36.8102   27.1307    2.3674 H         1 UNK         0.3459 
    133 H133       36.5700   28.3121    3.6297 H         1 UNK         0.3459 
    134 H134       33.8885   26.4947    5.2833 H         1 UNK         0.0616 
    135 H135       32.8561   27.8166    5.7495 H         1 UNK         0.0616 
    136 H136       32.0090   25.0742    6.1726 H         1 UNK         0.0634 
    137 H137       30.7014   26.2198    6.3581 H         1 UNK         0.0634 
@<TRIPOS>BOND
     1    1    2 1    
     2    1   72 1    
     3    1   73 1    
     4    1   74 1    
     5    2    3 2    
     6    2    4 am   BACKBONE|DICT|INTERRES
     7    4    5 1    
     8    4   75 1    
     9    5    6 1    
    10    5   35 1    
    11    5   76 1    
    12    6    7 1    
    13    6   77 1    
    14    6   78 1    
    15    7    8 1    
    16    8    9 1    
    17    8   79 1    
    18    8   80 1    
    19    9   10 ar   
    20    9   14 ar   
    21   10   11 ar   
    22   10   81 1    
    23   11   12 ar   
    24   11   71 1    
    25   12   13 ar   
    26   12   82 1    
    27   13   14 ar   
    28   13   15 1    
    29   14   83 1    
    30   15   16 1    
    31   15   84 1    
    32   15   85 1    
    33   16   17 1    
    34   17   18 1    
    35   17   86 1    
    36   17   87 1    
    37   18   19 1    
    38   18   37 1    
    39   18   88 1    
    40   19   20 am   BACKBONE|DICT|INTERRES
    41   19   89 1    
    42   20   21 2    
    43   20   22 1    
    44   22   23 1    
    45   22   24 1    
    46   22   90 1    
    47   23   91 1    
    48   23   92 1    
    49   23   93 1    
    50   24   25 am   BACKBONE|DICT|INTERRES
    51   24   94 1    
    52   25   26 2    
    53   25   27 1    
    54   27   28 1    
    55   27   29 1    
    56   27   95 1    
    57   28   96 1    
    58   28   97 1    
    59   28   98 1    
    60   29   30 am   BACKBONE|DICT|INTERRES
    61   29   99 1    
    62   30   31 2    
    63   30   32 1    
    64   32   33 1    
    65   32   34 1    
    66   32  100 1    
    67   33  101 1    
    68   33  102 1    
    69   33  103 1    
    70   34   35 am   BACKBONE|DICT|INTERRES
    71   34  104 1    
    72   35   36 2    
    73   37   38 2    
    74   37   39 am   BACKBONE|DICT|INTERRES
    75   39   40 1    
    76   39  105 1    
    77   40   41 1    
    78   40   42 1    
    79   40  106 1    
    80   41  107 1    
    81   41  108 1    
    82   41  109 1    
    83   42   43 2    
    84   42   44 am   BACKBONE|DICT|INTERRES
    85   44   45 1    
    86   44  110 1    
    87   45   46 1    
    88   45   47 1    
    89   45  111 1    
    90   46  112 1    
    91   46  113 1    
    92   46  114 1    
    93   47   48 2    
    94   47   49 am   BACKBONE|DICT|INTERRES
    95   49   50 1    
    96   49  115 1    
    97   50   51 1    
    98   50   52 1    
    99   50  116 1    
   100   51  117 1    
   101   51  118 1    
   102   51  119 1    
   103   52   53 2    
   104   52   54 am   BACKBONE|DICT|INTERRES
   105   54   55 1    
   106   54  120 1    
   107   55   56 1    
   108   55   57 1    
   109   55  121 1    
   110   56  122 1    
   111   56  123 1    
   112   56  124 1    
   113   57   58 2    
   114   57   59 am   BACKBONE|DICT|INTERRES
   115   59   60 1    
   116   59  125 1    
   117   60   61 1    
   118   60   62 1    
   119   60  126 1    
   120   61  127 1    
   121   61  128 1    
   122   61  129 1    
   123   62   63 2    
   124   62   64 am   BACKBONE|DICT|INTERRES
   125   64   65 1    
   126   64  130 1    
   127   65   66 1    
   128   65   69 1    
   129   65  131 1    
   130   66   67 am   BACKBONE|DICT|INTERRES
   131   66   68 2    
   132   67  132 1    
   133   67  133 1    
   134   69   70 1    
   135   69  134 1    
   136   69  135 1    
   137   70   71 1    
   138   71  136 1    
   139   71  137 1    
@<TRIPOS>SUBSTRUCTURE
     1 UNK         1 GROUP             0       ****    0 ROOT    
