@<TRIPOS>MOLECULE
3R136
137   139    1
SMALL
USER_CHARGES


@<TRIPOS>ATOM
      1 CA         29.2884   27.5689    2.1980 C.3       0 UNK        -0.1979 
      2 C          28.6868   26.6355    3.2345 C.2       0 UNK         0.4864 
      3 O          27.7681   27.0320    3.9523 O.2       0 UNK        -0.5359 
      4 N          29.1906   25.3953    3.3178 N.am      1 UNK        -0.4318 
      5 CA         28.6863   24.3615    4.2321 C.3       1 UNK         0.0824 
      6 C6         29.7173   23.2269    4.4699 C.3       12 UNK        -0.0944 
      7 S7         30.1158   22.2243    2.9920 S.3       12 UNK        -0.2672 
      8 C8         31.8789   22.5922    2.7327 C.3       12 UNK         0.0333 
      9 C9         32.0817   23.9943    2.1822 C.ar      12 UNK        -0.0807 
     10 C10        32.5638   25.0165    3.0045 C.ar      12 UNK        -0.0894 
     11 C11        32.7438   26.3065    2.4976 C.ar      12 UNK        -0.0804 
     12 C12        32.4401   26.5685    1.1581 C.ar      12 UNK        -0.0824 
     13 C13        31.9440   25.5570    0.3298 C.ar      12 UNK        -0.0762 
     14 C14        31.7796   24.2686    0.8455 C.ar      12 UNK        -0.0782 
     15 C15        31.5737   25.8509   -1.1167 C.3       12 UNK         0.0230 
     16 S16        29.7726   25.7486   -1.3652 S.3       12 UNK        -0.2608 
     17 C17        29.6246   26.2001   -3.1301 C.3       12 UNK        -0.0989 
     18 CA         28.9029   27.5495   -3.3780 C.3       5 UNK         0.0716 
     19 N          27.5481   27.5592   -2.8090 N.am      5 UNK        -0.4135 
     20 C          26.5863   28.4328   -3.1414 C.2       4 UNK         0.5031 
     21 O          26.7276   29.3035   -4.0019 O.2       4 UNK        -0.5229 
     22 CA         25.2460   28.2958   -2.4014 C.3       4 UNK         0.0329 
     23 CB         24.0973   29.0764   -3.0716 C.3       4 UNK        -0.2001 
     24 N          24.8816   26.8850   -2.2736 N.am      4 UNK        -0.4303 
     25 C          24.2479   26.3432   -1.2275 C.2       3 UNK         0.5044 
     26 O          23.8546   26.9916   -0.2553 O.2       3 UNK        -0.5152 
     27 CA         23.9946   24.8206   -1.2610 C.3       3 UNK         0.0319 
     28 CB         24.6349   24.0898   -2.4656 C.3       3 UNK        -0.2001 
     29 N          24.3879   24.1769   -0.0012 N.am      3 UNK        -0.4354 
     30 C          25.6093   24.1849    0.5521 C.2       2 UNK         0.4964 
     31 O          26.5994   24.7216    0.0460 O.2       2 UNK        -0.5047 
     32 CA         25.7498   23.4486    1.8899 C.3       2 UNK         0.0288 
     33 CB         25.7592   21.9209    1.6885 C.3       2 UNK        -0.2113 
     34 N          26.9970   23.8744    2.5118 N.am      2 UNK        -0.4145 
     35 C          27.3041   23.8105    3.8124 C.2       1 UNK         0.5006 
     36 O          26.5501   23.3475    4.6708 O.2       1 UNK        -0.5103 
     37 C          29.7611   28.7503   -2.9195 C.2       5 UNK         0.5055 
     38 O          30.6945   29.1328   -3.6271 O.2       5 UNK        -0.5220 
     39 N          29.4314   29.3168   -1.7545 N.am      6 UNK        -0.4450 
     40 CA         30.0643   30.4638   -1.1176 C.3       6 UNK         0.0367 
     41 CB         31.4180   30.0487   -0.5053 C.3       6 UNK        -0.1929 
     42 C          29.1048   30.9735   -0.0333 C.2       6 UNK         0.5070 
     43 O          28.0387   30.3838    0.1721 O.2       6 UNK        -0.5237 
     44 N          29.5151   32.0357    0.6692 N.am      7 UNK        -0.4739 
     45 CA         28.8964   32.4750    1.9225 C.3       7 UNK         0.0276 
     46 CB         29.4342   33.8699    2.2819 C.3       7 UNK        -0.1927 
     47 C          29.1937   31.4772    3.0570 C.2       7 UNK         0.5013 
     48 O          30.1985   30.7628    2.9952 O.2       7 UNK        -0.5193 
     49 N          28.3444   31.4703    4.0925 N.am      8 UNK        -0.4253 
     50 CA         28.4184   30.5748    5.2553 C.3       8 UNK         0.0242 
     51 CB         27.0374   30.5317    5.9365 C.3       8 UNK        -0.2000 
     52 C          29.5571   30.9201    6.2425 C.2       8 UNK         0.4948 
     53 O          29.3219   31.0302    7.4474 O.2       8 UNK        -0.5275 
     54 N          30.7721   31.0845    5.7130 N.am      9 UNK        -0.4246 
     55 CA         32.0214   31.2346    6.4544 C.3       9 UNK         0.0261 
     56 CB         33.0008   32.0463    5.5881 C.3       9 UNK        -0.1959 
     57 C          32.6125   29.8542    6.7860 C.2       9 UNK         0.5033 
     58 O          32.1920   28.8460    6.2125 O.2       9 UNK        -0.5390 
     59 N          33.6023   29.8315    7.6857 N.am      10 UNK        -0.4215 
     60 CA         34.3997   28.6418    7.9822 C.3       10 UNK         0.0240 
     61 CB         35.0121   28.7707    9.3875 C.3       10 UNK        -0.1982 
     62 C          35.4949   28.4771    6.9167 C.2       10 UNK         0.4970 
     63 O          36.2940   29.4015    6.7320 O.2       10 UNK        -0.4916 
     64 N          35.5153   27.3117    6.2575 N.am      11 UNK        -0.4279 
     65 CA         36.5194   26.9289    5.2476 C.3       11 UNK         0.1003 
     66 C          37.5296   25.8637    5.7666 C.2       11 UNK         0.5709 
     67 N          37.4679   25.4383    7.0241 N.am      11 UNK        -0.7358 
     68 O          38.4041   25.4267    5.0214 O.2       11 UNK        -0.4999 
     69 C69        35.8519   26.4878    3.9158 C.3       12 UNK        -0.0954 
     70 S70        34.9700   27.8583    3.0946 S.3       12 UNK        -0.2268 
     71 C71        33.2306   27.4277    3.4038 C.3       12 UNK         0.0203 
     72 H72        29.5832   27.0270    1.3016 H         1 UNK         0.0888 
     73 H73        28.5657   28.3298    1.9051 H         1 UNK         0.0888 
     74 H74        30.1634   28.0727    2.6062 H         1 UNK         0.0888 
     75 H75        29.9579   25.1175    2.7190 H         1 UNK         0.3017 
     76 H76        28.5309   24.8455    5.1991 H         1 UNK         0.0873 
     77 H77        30.6341   23.6502    4.8821 H         1 UNK         0.0745 
     78 H78        29.3472   22.5475    5.2400 H         1 UNK         0.0745 
     79 H79        32.4261   22.4515    3.6662 H         1 UNK         0.0705 
     80 H80        32.2890   21.8672    2.0281 H         1 UNK         0.0705 
     81 H81        32.7913   24.8102    4.0414 H         1 UNK         0.1334 
     82 H82        32.5840   27.5652    0.7676 H         1 UNK         0.1417 
     83 H83        31.3946   23.4824    0.2095 H         1 UNK         0.1562 
     84 H84        32.0735   25.1359   -1.7718 H         1 UNK         0.0748 
     85 H85        31.9214   26.8427   -1.4106 H         1 UNK         0.0748 
     86 H86        29.0732   25.4008   -3.6278 H         1 UNK         0.0940 
     87 H87        30.6102   26.2020   -3.6002 H         1 UNK         0.0940 
     88 H88        28.7932   27.6556   -4.4596 H         1 UNK         0.0703 
     89 H89        27.3677   26.8769   -2.0845 H         1 UNK         0.3081 
     90 H90        25.4111   28.7186   -1.4078 H         1 UNK         0.0719 
     91 H91        24.3338   30.1388   -3.1445 H         1 UNK         0.0809 
     92 H92        23.1735   28.9923   -2.4992 H         1 UNK         0.0809 
     93 H93        23.9008   28.7133   -4.0810 H         1 UNK         0.0809 
     94 H94        25.1715   26.2791   -3.0293 H         1 UNK         0.2990 
     95 H95        22.9133   24.6996   -1.3416 H         1 UNK         0.0690 
     96 H96        24.4118   23.0232   -2.4357 H         1 UNK         0.0788 
     97 H97        25.7206   24.1946   -2.4835 H         1 UNK         0.0788 
     98 H98        24.2447   24.4646   -3.4127 H         1 UNK         0.0788 
     99 H99        23.6378   23.7303    0.5079 H         1 UNK         0.2993 
    100 H100       24.9146   23.7357    2.5325 H         1 UNK         0.0949 
    101 H101       24.8379   21.5781    1.2163 H         1 UNK         0.0767 
    102 H102       26.5895   21.6066    1.0546 H         1 UNK         0.0767 
    103 H103       25.8484   21.3946    2.6390 H         1 UNK         0.0767 
    104 H104       27.6466   24.3104    1.8683 H         1 UNK         0.3013 
    105 H105       28.6189   28.9829   -1.2496 H         1 UNK         0.3121 
    106 H106       30.2092   31.2513   -1.8597 H         1 UNK         0.0774 
    107 H107       31.9600   30.9121   -0.1187 H         1 UNK         0.0815 
    108 H108       31.2746   29.3593    0.3267 H         1 UNK         0.0815 
    109 H109       32.0671   29.5672   -1.2363 H         1 UNK         0.0815 
    110 H110       30.4152   32.4380    0.4517 H         1 UNK         0.2987 
    111 H111       27.8151   32.5330    1.7782 H         1 UNK         0.0949 
    112 H112       29.2271   34.5911    1.4911 H         1 UNK         0.0806 
    113 H113       28.9681   34.2486    3.1925 H         1 UNK         0.0806 
    114 H114       30.5119   33.8561    2.4507 H         1 UNK         0.0806 
    115 H115       27.5737   32.1230    4.0863 H         1 UNK         0.3010 
    116 H116       28.6300   29.5684    4.8870 H         1 UNK         0.0829 
    117 H117       26.2619   30.2121    5.2402 H         1 UNK         0.0813 
    118 H118       27.0321   29.8230    6.7656 H         1 UNK         0.0813 
    119 H119       26.7534   31.5057    6.3365 H         1 UNK         0.0813 
    120 H120       30.8550   30.9226    4.7118 H         1 UNK         0.3038 
    121 H121       31.8332   31.7727    7.3861 H         1 UNK         0.0769 
    122 H122       33.2386   31.5279    4.6575 H         1 UNK         0.0811 
    123 H123       33.9410   32.2239    6.1114 H         1 UNK         0.0811 
    124 H124       32.5866   33.0215    5.3303 H         1 UNK         0.0811 
    125 H125       33.9266   30.7028    8.0815 H         1 UNK         0.3204 
    126 H126       33.7509   27.7629    7.9778 H         1 UNK         0.0748 
    127 H127       35.6021   27.8880    9.6382 H         1 UNK         0.0771 
    128 H128       35.6716   29.6361    9.4664 H         1 UNK         0.0771 
    129 H129       34.2381   28.8693   10.1492 H         1 UNK         0.0771 
    130 H130       34.8217   26.6081    6.4741 H         1 UNK         0.2980 
    131 H131       37.1426   27.7941    5.0156 H         1 UNK         0.0545 
    132 H132       36.7775   25.8029    7.6601 H         1 UNK         0.3459 
    133 H133       38.1359   24.7543    7.3433 H         1 UNK         0.3459 
    134 H134       36.6014   26.1338    3.2059 H         1 UNK         0.0616 
    135 H135       35.1770   25.6479    4.0829 H         1 UNK         0.0616 
    136 H136       33.1084   27.1542    4.4520 H         1 UNK         0.0634 
    137 H137       32.6156   28.3153    3.2469 H         1 UNK         0.0634 
@<TRIPOS>BOND
     1    1    2 1    
     2    1   72 1    
     3    1   73 1    
     4    1   74 1    
     5    2    3 2    
     6    2    4 am   BACKBONE|DICT|INTERRES
     7    4    5 1    
     8    4   75 1    
     9    5    6 1    
    10    5   35 1    
    11    5   76 1    
    12    6    7 1    
    13    6   77 1    
    14    6   78 1    
    15    7    8 1    
    16    8    9 1    
    17    8   79 1    
    18    8   80 1    
    19    9   10 ar   
    20    9   14 ar   
    21   10   11 ar   
    22   10   81 1    
    23   11   12 ar   
    24   11   71 1    
    25   12   13 ar   
    26   12   82 1    
    27   13   14 ar   
    28   13   15 1    
    29   14   83 1    
    30   15   16 1    
    31   15   84 1    
    32   15   85 1    
    33   16   17 1    
    34   17   18 1    
    35   17   86 1    
    36   17   87 1    
    37   18   19 1    
    38   18   37 1    
    39   18   88 1    
    40   19   20 am   BACKBONE|DICT|INTERRES
    41   19   89 1    
    42   20   21 2    
    43   20   22 1    
    44   22   23 1    
    45   22   24 1    
    46   22   90 1    
    47   23   91 1    
    48   23   92 1    
    49   23   93 1    
    50   24   25 am   BACKBONE|DICT|INTERRES
    51   24   94 1    
    52   25   26 2    
    53   25   27 1    
    54   27   28 1    
    55   27   29 1    
    56   27   95 1    
    57   28   96 1    
    58   28   97 1    
    59   28   98 1    
    60   29   30 am   BACKBONE|DICT|INTERRES
    61   29   99 1    
    62   30   31 2    
    63   30   32 1    
    64   32   33 1    
    65   32   34 1    
    66   32  100 1    
    67   33  101 1    
    68   33  102 1    
    69   33  103 1    
    70   34   35 am   BACKBONE|DICT|INTERRES
    71   34  104 1    
    72   35   36 2    
    73   37   38 2    
    74   37   39 am   BACKBONE|DICT|INTERRES
    75   39   40 1    
    76   39  105 1    
    77   40   41 1    
    78   40   42 1    
    79   40  106 1    
    80   41  107 1    
    81   41  108 1    
    82   41  109 1    
    83   42   43 2    
    84   42   44 am   BACKBONE|DICT|INTERRES
    85   44   45 1    
    86   44  110 1    
    87   45   46 1    
    88   45   47 1    
    89   45  111 1    
    90   46  112 1    
    91   46  113 1    
    92   46  114 1    
    93   47   48 2    
    94   47   49 am   BACKBONE|DICT|INTERRES
    95   49   50 1    
    96   49  115 1    
    97   50   51 1    
    98   50   52 1    
    99   50  116 1    
   100   51  117 1    
   101   51  118 1    
   102   51  119 1    
   103   52   53 2    
   104   52   54 am   BACKBONE|DICT|INTERRES
   105   54   55 1    
   106   54  120 1    
   107   55   56 1    
   108   55   57 1    
   109   55  121 1    
   110   56  122 1    
   111   56  123 1    
   112   56  124 1    
   113   57   58 2    
   114   57   59 am   BACKBONE|DICT|INTERRES
   115   59   60 1    
   116   59  125 1    
   117   60   61 1    
   118   60   62 1    
   119   60  126 1    
   120   61  127 1    
   121   61  128 1    
   122   61  129 1    
   123   62   63 2    
   124   62   64 am   BACKBONE|DICT|INTERRES
   125   64   65 1    
   126   64  130 1    
   127   65   66 1    
   128   65   69 1    
   129   65  131 1    
   130   66   67 am   BACKBONE|DICT|INTERRES
   131   66   68 2    
   132   67  132 1    
   133   67  133 1    
   134   69   70 1    
   135   69  134 1    
   136   69  135 1    
   137   70   71 1    
   138   71  136 1    
   139   71  137 1    
@<TRIPOS>SUBSTRUCTURE
     1 UNK         1 GROUP             0       ****    0 ROOT    
