@<TRIPOS>MOLECULE
3R136
137   139    1
SMALL
USER_CHARGES


@<TRIPOS>ATOM
      1 CA         27.5431   21.0442    0.8353 C.3       0 UNK        -0.1979 
      2 C          27.8093   22.0982   -0.2278 C.2       0 UNK         0.4864 
      3 O          26.9212   22.3935   -1.0282 O.2       0 UNK        -0.5359 
      4 N          29.0262   22.6562   -0.2515 N.am      1 UNK        -0.4318 
      5 CA         29.4684   23.6476   -1.2395 C.3       1 UNK         0.0824 
      6 C6         31.0096   23.8092   -1.2756 C.3       12 UNK        -0.0944 
      7 S7         31.8928   22.2098   -1.3599 S.3       12 UNK        -0.2672 
      8 C8         33.3248   22.4765   -0.2603 C.3       12 UNK         0.0333 
      9 C9         32.9330   22.9834    1.1226 C.ar      12 UNK        -0.0807 
     10 C10        33.3160   24.2656    1.5281 C.ar      12 UNK        -0.0894 
     11 C11        32.9570   24.7553    2.7868 C.ar      12 UNK        -0.0804 
     12 C12        32.2179   23.9389    3.6506 C.ar      12 UNK        -0.0824 
     13 C13        31.8112   22.6618    3.2502 C.ar      12 UNK        -0.0762 
     14 C14        32.1818   22.1843    1.9892 C.ar      12 UNK        -0.0782 
     15 C15        30.9692   21.7953    4.1749 C.3       12 UNK         0.0230 
     16 S16        29.1882   21.9782    3.8327 S.3       12 UNK        -0.2608 
     17 C17        28.8163   23.5985    4.5828 C.3       12 UNK        -0.0989 
     18 CA         28.6099   24.7212    3.5265 C.3       5 UNK         0.0716 
     19 N          27.4765   24.5228    2.6161 N.am      5 UNK        -0.4135 
     20 C          26.1846   24.3975    2.9482 C.2       4 UNK         0.5031 
     21 O          25.7672   24.3366    4.1063 O.2       4 UNK        -0.5229 
     22 CA         25.1943   24.3454    1.7678 C.3       4 UNK         0.0329 
     23 CB         23.7542   24.0009    2.2043 C.3       4 UNK        -0.2001 
     24 N          25.2097   25.5720    0.9606 N.am      4 UNK        -0.4303 
     25 C          24.9453   26.8259    1.3602 C.2       3 UNK         0.5044 
     26 O          24.6482   27.1334    2.5150 O.2       3 UNK        -0.5152 
     27 CA         25.0145   27.9155    0.2697 C.3       3 UNK         0.0319 
     28 CB         24.7479   29.3336    0.8091 C.3       3 UNK        -0.2001 
     29 N          26.3021   27.8971   -0.4315 N.am      3 UNK        -0.4354 
     30 C          26.5812   27.0976   -1.4706 C.2       2 UNK         0.4964 
     31 O          25.7609   26.3116   -1.9489 O.2       2 UNK        -0.5047 
     32 CA         28.0008   27.1268   -2.0728 C.3       2 UNK         0.0288 
     33 CB         28.9598   28.1601   -1.4446 C.3       2 UNK        -0.2113 
     34 N          28.6115   25.7919   -2.0620 N.am      2 UNK        -0.4145 
     35 C          28.8025   25.0136   -0.9858 C.2       1 UNK         0.5006 
     36 O          28.5115   25.3441    0.1689 O.2       1 UNK        -0.5103 
     37 C          28.5522   26.1309    4.1458 C.2       5 UNK         0.5055 
     38 O          28.6232   26.2791    5.3669 O.2       5 UNK        -0.5220 
     39 N          28.4393   27.1411    3.2766 N.am      6 UNK        -0.4450 
     40 CA         28.5610   28.5550    3.6077 C.3       6 UNK         0.0367 
     41 CB         27.2600   29.0961    4.2266 C.3       6 UNK        -0.1929 
     42 C          28.9334   29.2810    2.3155 C.2       6 UNK         0.5070 
     43 O          28.1054   29.3487    1.4064 O.2       6 UNK        -0.5237 
     44 N          30.1757   29.7677    2.2355 N.am      7 UNK        -0.4739 
     45 CA         30.7433   30.4259    1.0551 C.3       7 UNK         0.0276 
     46 CB         32.0661   29.7232    0.6990 C.3       7 UNK        -0.1927 
     47 C          30.9565   31.9343    1.2722 C.2       7 UNK         0.5013 
     48 O          31.5666   32.5810    0.4194 O.2       7 UNK        -0.5193 
     49 N          30.4902   32.4659    2.4134 N.am      8 UNK        -0.4253 
     50 CA         30.5959   33.8474    2.9116 C.3       8 UNK         0.0242 
     51 CB         29.9369   34.8582    1.9523 C.3       8 UNK        -0.2000 
     52 C          32.0304   34.2696    3.2769 C.2       8 UNK         0.4948 
     53 O          32.2515   34.7591    4.3846 O.2       8 UNK        -0.5275 
     54 N          32.9824   34.0396    2.3647 N.am      9 UNK        -0.4246 
     55 CA         34.4229   34.2080    2.5793 C.3       9 UNK         0.0261 
     56 CB         35.1255   34.2678    1.2132 C.3       9 UNK        -0.1959 
     57 C          35.0338   33.0923    3.4502 C.2       9 UNK         0.5033 
     58 O          36.1272   33.2761    3.9873 O.2       9 UNK        -0.5390 
     59 N          34.3250   31.9656    3.5732 N.am      10 UNK        -0.4215 
     60 CA         34.6511   30.8100    4.3978 C.3       10 UNK         0.0240 
     61 CB         35.5469   29.8415    3.6037 C.3       10 UNK        -0.1982 
     62 C          33.3353   30.1358    4.8020 C.2       10 UNK         0.4970 
     63 O          32.3040   30.4020    4.1761 O.2       10 UNK        -0.4916 
     64 N          33.4090   29.2733    5.8241 N.am      11 UNK        -0.4279 
     65 CA         32.3619   28.3928    6.3894 C.3       11 UNK         0.1003 
     66 C          30.9946   29.0194    6.8101 C.2       11 UNK         0.5709 
     67 N          30.6572   30.2403    6.4219 N.am      11 UNK        -0.7358 
     68 O          30.2492   28.4013    7.5657 O.2       11 UNK        -0.4999 
     69 C69        32.2077   27.0352    5.6346 C.3       12 UNK        -0.0954 
     70 S70        31.9868   27.1558    3.8233 S.3       12 UNK        -0.2268 
     71 C71        33.3792   26.1636    3.1940 C.3       12 UNK         0.0203 
     72 H72        28.4709   20.6308    1.2300 H         1 UNK         0.0888 
     73 H73        26.9774   21.4725    1.6618 H         1 UNK         0.0888 
     74 H74        26.9646   20.2217    0.4156 H         1 UNK         0.0888 
     75 H75        29.7153   22.3969    0.4394 H         1 UNK         0.3017 
     76 H76        29.1455   23.2909   -2.2203 H         1 UNK         0.0873 
     77 H77        31.3071   24.3996   -2.1441 H         1 UNK         0.0745 
     78 H78        31.3440   24.3763   -0.4072 H         1 UNK         0.0745 
     79 H79        34.0108   23.1716   -0.7469 H         1 UNK         0.0705 
     80 H80        33.8682   21.5366   -0.1554 H         1 UNK         0.0705 
     81 H81        33.8901   24.8888    0.8558 H         1 UNK         0.1334 
     82 H82        31.9406   24.3076    4.6279 H         1 UNK         0.1417 
     83 H83        31.8753   21.1955    1.6752 H         1 UNK         0.1562 
     84 H84        31.1752   22.0291    5.2206 H         1 UNK         0.0748 
     85 H85        31.2432   20.7474    4.0429 H         1 UNK         0.0748 
     86 H86        29.6286   23.8603    5.2624 H         1 UNK         0.0940 
     87 H87        27.9358   23.4928    5.2173 H         1 UNK         0.0940 
     88 H88        29.4960   24.7258    2.8892 H         1 UNK         0.0703 
     89 H89        27.7122   24.6439    1.6323 H         1 UNK         0.3081 
     90 H90        25.5313   23.5430    1.1118 H         1 UNK         0.0719 
     91 H91        23.3387   24.7569    2.8715 H         1 UNK         0.0809 
     92 H92        23.0902   23.9112    1.3447 H         1 UNK         0.0809 
     93 H93        23.7265   23.0490    2.7360 H         1 UNK         0.0809 
     94 H94        25.4556   25.4520   -0.0161 H         1 UNK         0.2990 
     95 H95        24.2155   27.6949   -0.4414 H         1 UNK         0.0690 
     96 H96        24.7502   30.0689    0.0045 H         1 UNK         0.0788 
     97 H97        25.4951   29.6389    1.5402 H         1 UNK         0.0788 
     98 H98        23.7734   29.3905    1.2957 H         1 UNK         0.0788 
     99 H99        27.0414   28.4608   -0.0183 H         1 UNK         0.2993 
    100 H100       27.8671   27.4014   -3.1203 H         1 UNK         0.0949 
    101 H101       29.2283   27.8980   -0.4218 H         1 UNK         0.0767 
    102 H102       29.8872   28.2249   -2.0137 H         1 UNK         0.0767 
    103 H103       28.5230   29.1595   -1.4359 H         1 UNK         0.0767 
    104 H104       28.8577   25.4229   -2.9700 H         1 UNK         0.3013 
    105 H105       28.3844   26.9355    2.2866 H         1 UNK         0.3121 
    106 H106       29.3694   28.6829    4.3293 H         1 UNK         0.0774 
    107 H107       27.3245   30.1716    4.3942 H         1 UNK         0.0815 
    108 H108       26.4008   28.9135    3.5824 H         1 UNK         0.0815 
    109 H109       27.0567   28.6287    5.1900 H         1 UNK         0.0815 
    110 H110       30.8100   29.6663    3.0237 H         1 UNK         0.2987 
    111 H111       30.0694   30.3315    0.2019 H         1 UNK         0.0949 
    112 H112       32.8022   29.8190    1.4975 H         1 UNK         0.0806 
    113 H113       31.9097   28.6596    0.5172 H         1 UNK         0.0806 
    114 H114       32.5065   30.1433   -0.2061 H         1 UNK         0.0806 
    115 H115       30.0436   31.8184    3.0476 H         1 UNK         0.3010 
    116 H116       30.0229   33.8648    3.8403 H         1 UNK         0.0829 
    117 H117       28.8998   34.5918    1.7488 H         1 UNK         0.0813 
    118 H118       29.9350   35.8590    2.3861 H         1 UNK         0.0813 
    119 H119       30.4592   34.9227    0.9975 H         1 UNK         0.0813 
    120 H120       32.6854   33.6241    1.4837 H         1 UNK         0.3038 
    121 H121       34.5882   35.1564    3.0949 H         1 UNK         0.0769 
    122 H122       36.1996   34.4170    1.3321 H         1 UNK         0.0811 
    123 H123       34.7496   35.0942    0.6097 H         1 UNK         0.0811 
    124 H124       34.9842   33.3465    0.6464 H         1 UNK         0.0811 
    125 H125       33.4039   31.9188    3.1569 H         1 UNK         0.3204 
    126 H126       35.1661   31.1412    5.3021 H         1 UNK         0.0748 
    127 H127       35.0489   29.4795    2.7032 H         1 UNK         0.0771 
    128 H128       36.4776   30.3213    3.3004 H         1 UNK         0.0771 
    129 H129       35.8136   28.9691    4.2015 H         1 UNK         0.0771 
    130 H130       34.3083   29.1726    6.2712 H         1 UNK         0.2980 
    131 H131       32.7889   28.1265    7.3573 H         1 UNK         0.0545 
    132 H132       31.2373   30.7107    5.7391 H         1 UNK         0.3459 
    133 H133       29.7898   30.6450    6.7341 H         1 UNK         0.3459 
    134 H134       31.3731   26.4577    6.0358 H         1 UNK         0.0616 
    135 H135       33.0871   26.4254    5.8417 H         1 UNK         0.0616 
    136 H136       33.7900   26.6963    2.3351 H         1 UNK         0.0634 
    137 H137       34.1864   26.1098    3.9246 H         1 UNK         0.0634 
@<TRIPOS>BOND
     1    1    2 1    
     2    1   72 1    
     3    1   73 1    
     4    1   74 1    
     5    2    3 2    
     6    2    4 am   BACKBONE|DICT|INTERRES
     7    4    5 1    
     8    4   75 1    
     9    5    6 1    
    10    5   35 1    
    11    5   76 1    
    12    6    7 1    
    13    6   77 1    
    14    6   78 1    
    15    7    8 1    
    16    8    9 1    
    17    8   79 1    
    18    8   80 1    
    19    9   10 ar   
    20    9   14 ar   
    21   10   11 ar   
    22   10   81 1    
    23   11   12 ar   
    24   11   71 1    
    25   12   13 ar   
    26   12   82 1    
    27   13   14 ar   
    28   13   15 1    
    29   14   83 1    
    30   15   16 1    
    31   15   84 1    
    32   15   85 1    
    33   16   17 1    
    34   17   18 1    
    35   17   86 1    
    36   17   87 1    
    37   18   19 1    
    38   18   37 1    
    39   18   88 1    
    40   19   20 am   BACKBONE|DICT|INTERRES
    41   19   89 1    
    42   20   21 2    
    43   20   22 1    
    44   22   23 1    
    45   22   24 1    
    46   22   90 1    
    47   23   91 1    
    48   23   92 1    
    49   23   93 1    
    50   24   25 am   BACKBONE|DICT|INTERRES
    51   24   94 1    
    52   25   26 2    
    53   25   27 1    
    54   27   28 1    
    55   27   29 1    
    56   27   95 1    
    57   28   96 1    
    58   28   97 1    
    59   28   98 1    
    60   29   30 am   BACKBONE|DICT|INTERRES
    61   29   99 1    
    62   30   31 2    
    63   30   32 1    
    64   32   33 1    
    65   32   34 1    
    66   32  100 1    
    67   33  101 1    
    68   33  102 1    
    69   33  103 1    
    70   34   35 am   BACKBONE|DICT|INTERRES
    71   34  104 1    
    72   35   36 2    
    73   37   38 2    
    74   37   39 am   BACKBONE|DICT|INTERRES
    75   39   40 1    
    76   39  105 1    
    77   40   41 1    
    78   40   42 1    
    79   40  106 1    
    80   41  107 1    
    81   41  108 1    
    82   41  109 1    
    83   42   43 2    
    84   42   44 am   BACKBONE|DICT|INTERRES
    85   44   45 1    
    86   44  110 1    
    87   45   46 1    
    88   45   47 1    
    89   45  111 1    
    90   46  112 1    
    91   46  113 1    
    92   46  114 1    
    93   47   48 2    
    94   47   49 am   BACKBONE|DICT|INTERRES
    95   49   50 1    
    96   49  115 1    
    97   50   51 1    
    98   50   52 1    
    99   50  116 1    
   100   51  117 1    
   101   51  118 1    
   102   51  119 1    
   103   52   53 2    
   104   52   54 am   BACKBONE|DICT|INTERRES
   105   54   55 1    
   106   54  120 1    
   107   55   56 1    
   108   55   57 1    
   109   55  121 1    
   110   56  122 1    
   111   56  123 1    
   112   56  124 1    
   113   57   58 2    
   114   57   59 am   BACKBONE|DICT|INTERRES
   115   59   60 1    
   116   59  125 1    
   117   60   61 1    
   118   60   62 1    
   119   60  126 1    
   120   61  127 1    
   121   61  128 1    
   122   61  129 1    
   123   62   63 2    
   124   62   64 am   BACKBONE|DICT|INTERRES
   125   64   65 1    
   126   64  130 1    
   127   65   66 1    
   128   65   69 1    
   129   65  131 1    
   130   66   67 am   BACKBONE|DICT|INTERRES
   131   66   68 2    
   132   67  132 1    
   133   67  133 1    
   134   69   70 1    
   135   69  134 1    
   136   69  135 1    
   137   70   71 1    
   138   71  136 1    
   139   71  137 1    
@<TRIPOS>SUBSTRUCTURE
     1 UNK         1 GROUP             0       ****    0 ROOT    
