@<TRIPOS>MOLECULE
3R136
137   139    1
SMALL
USER_CHARGES


@<TRIPOS>ATOM
      1 CA         25.7307   27.1559    2.3699 C.3       0 UNK        -0.1979 
      2 C          25.6960   25.6345    2.3674 C.2       0 UNK         0.4864 
      3 O          24.6335   25.0453    2.5748 O.2       0 UNK        -0.5359 
      4 N          26.8396   24.9849    2.1167 N.am      1 UNK        -0.4318 
      5 CA         27.0143   23.5267    2.0879 C.3       1 UNK         0.0824 
      6 C6         28.4903   23.1405    2.3610 C.3       12 UNK        -0.0944 
      7 S7         29.0646   23.5853    4.0349 S.3       12 UNK        -0.2672 
      8 C8         30.7124   22.8007    4.0687 C.3       12 UNK         0.0333 
      9 C9         31.7700   23.6371    3.3571 C.ar      12 UNK        -0.0807 
     10 C10        32.6567   24.4353    4.0900 C.ar      12 UNK        -0.0894 
     11 C11        33.6323   25.2066    3.4468 C.ar      12 UNK        -0.0804 
     12 C12        33.7088   25.1638    2.0476 C.ar      12 UNK        -0.0824 
     13 C13        32.8130   24.3940    1.3020 C.ar      12 UNK        -0.0762 
     14 C14        31.8686   23.6088    1.9636 C.ar      12 UNK        -0.0782 
     15 C15        32.8562   24.4187   -0.2200 C.3       12 UNK         0.0230 
     16 S16        31.4956   25.4077   -0.9318 S.3       12 UNK        -0.2608 
     17 C17        31.8879   27.0957   -0.3417 C.3       12 UNK        -0.0989 
     18 CA         30.6893   27.8982    0.2268 C.3       5 UNK         0.0716 
     19 N          29.6637   28.1280   -0.7860 N.am      5 UNK        -0.4135 
     20 C          28.8674   29.2032   -0.8279 C.2       4 UNK         0.5031 
     21 O          28.9550   30.1445   -0.0377 O.2       4 UNK        -0.5229 
     22 CA         27.8209   29.2708   -1.9572 C.3       4 UNK         0.0329 
     23 CB         28.3062   30.2114   -3.0724 C.3       4 UNK        -0.2001 
     24 N          27.4865   27.9648   -2.5380 N.am      4 UNK        -0.4303 
     25 C          26.7899   27.0185   -1.8965 C.2       3 UNK         0.5044 
     26 O          26.3167   27.1699   -0.7671 O.2       3 UNK        -0.5152 
     27 CA         26.6078   25.6775   -2.6229 C.3       3 UNK         0.0319 
     28 CB         27.9690   25.0025   -2.8958 C.3       3 UNK        -0.2001 
     29 N          25.7971   24.8311   -1.7569 N.am      3 UNK        -0.4354 
     30 C          25.2260   23.6564   -2.0411 C.2       2 UNK         0.4964 
     31 O          25.2264   23.1470   -3.1633 O.2       2 UNK        -0.5047 
     32 CA         24.5529   22.9328   -0.8525 C.3       2 UNK         0.0288 
     33 CB         24.3915   21.4151   -1.0846 C.3       2 UNK        -0.2113 
     34 N          25.2264   23.2012    0.4295 N.am      2 UNK        -0.4145 
     35 C          26.5069   22.9457    0.7466 C.2       1 UNK         0.5006 
     36 O          27.2790   22.3246    0.0127 O.2       1 UNK        -0.5103 
     37 C          30.0694   27.2700    1.4921 C.2       5 UNK         0.5055 
     38 O          29.1809   26.4209    1.3894 O.2       5 UNK        -0.5220 
     39 N          30.5579   27.7068    2.6566 N.am      6 UNK        -0.4450 
     40 CA         30.2434   27.2163    3.9956 C.3       6 UNK         0.0367 
     41 CB         28.7620   27.4255    4.3625 C.3       6 UNK        -0.1929 
     42 C          31.1275   27.9807    4.9779 C.2       6 UNK         0.5070 
     43 O          31.5617   29.0937    4.6597 O.2       6 UNK        -0.5237 
     44 N          31.3241   27.4268    6.1797 N.am      7 UNK        -0.4739 
     45 CA         32.0574   28.0376    7.2988 C.3       7 UNK         0.0276 
     46 CB         32.4475   26.9302    8.2951 C.3       7 UNK        -0.1927 
     47 C          31.2759   29.1949    7.9666 C.2       7 UNK         0.5013 
     48 O          31.0933   29.2025    9.1850 O.2       7 UNK        -0.5193 
     49 N          30.8171   30.1338    7.1336 N.am      8 UNK        -0.4253 
     50 CA         29.9698   31.2937    7.4186 C.3       8 UNK         0.0242 
     51 CB         28.6369   30.8707    8.0732 C.3       8 UNK        -0.2000 
     52 C          29.6729   32.0877    6.1320 C.2       8 UNK         0.4948 
     53 O          29.3826   33.2809    6.2286 O.2       8 UNK        -0.5275 
     54 N          29.7307   31.4257    4.9651 N.am      9 UNK        -0.4246 
     55 CA         29.5011   32.0043    3.6412 C.3       9 UNK         0.0261 
     56 CB         28.4508   31.1544    2.9023 C.3       9 UNK        -0.1959 
     57 C          30.8478   32.1309    2.9045 C.2       9 UNK         0.5033 
     58 O          31.8157   32.5901    3.5159 O.2       9 UNK        -0.5390 
     59 N          30.9216   31.7416    1.6211 N.am      10 UNK        -0.4215 
     60 CA         32.1120   31.8902    0.7694 C.3       10 UNK         0.0240 
     61 CB         31.6834   31.8975   -0.7109 C.3       10 UNK        -0.1982 
     62 C          33.2158   30.8488    1.0601 C.2       10 UNK         0.4970 
     63 O          33.6782   30.1716    0.1411 O.2       10 UNK        -0.4916 
     64 N          33.6139   30.7403    2.3295 N.am      11 UNK        -0.4279 
     65 CA         34.6979   29.8974    2.8456 C.3       11 UNK         0.1003 
     66 C          35.0310   30.3372    4.2928 C.2       11 UNK         0.5709 
     67 N          34.0508   30.3716    5.1856 N.am      11 UNK        -0.7358 
     68 O          36.1703   30.6829    4.5964 O.2       11 UNK        -0.4999 
     69 C69        34.3941   28.3799    2.6957 C.3       12 UNK        -0.0954 
     70 S70        35.6378   27.2468    3.4058 S.3       12 UNK        -0.2268 
     71 C71        34.5735   26.0604    4.3063 C.3       12 UNK         0.0203 
     72 H72        26.6738   27.5394    1.9799 H         1 UNK         0.0888 
     73 H73        24.9299   27.5501    1.7449 H         1 UNK         0.0888 
     74 H74        25.5957   27.5359    3.3819 H         1 UNK         0.0888 
     75 H75        27.6816   25.5197    1.8982 H         1 UNK         0.3017 
     76 H76        26.4014   23.0832    2.8754 H         1 UNK         0.0873 
     77 H77        28.6377   22.0659    2.2369 H         1 UNK         0.0745 
     78 H78        29.1268   23.6352    1.6274 H         1 UNK         0.0745 
     79 H79        30.9989   22.6479    5.1102 H         1 UNK         0.0705 
     80 H80        30.6595   21.8060    3.6237 H         1 UNK         0.0705 
     81 H81        32.5864   24.4581    5.1691 H         1 UNK         0.1334 
     82 H82        34.4549   25.7387    1.5200 H         1 UNK         0.1417 
     83 H83        31.1995   22.9896    1.3841 H         1 UNK         0.1562 
     84 H84        32.7863   23.3987   -0.6004 H         1 UNK         0.0748 
     85 H85        33.8100   24.8113   -0.5762 H         1 UNK         0.0748 
     86 H86        32.3235   27.6457   -1.1776 H         1 UNK         0.0940 
     87 H87        32.6790   27.0532    0.4035 H         1 UNK         0.0940 
     88 H88        31.0868   28.8723    0.5157 H         1 UNK         0.0703 
     89 H89        29.5048   27.3707   -1.4326 H         1 UNK         0.3081 
     90 H90        26.9112   29.6950   -1.5265 H         1 UNK         0.0719 
     91 H91        29.2102   29.8361   -3.5536 H         1 UNK         0.0809 
     92 H92        27.5444   30.3435   -3.8409 H         1 UNK         0.0809 
     93 H93        28.5370   31.2010   -2.6747 H         1 UNK         0.0809 
     94 H94        27.8308   27.7769   -3.4689 H         1 UNK         0.2990 
     95 H95        26.0745   25.8521   -3.5592 H         1 UNK         0.0690 
     96 H96        27.8462   24.0421   -3.3963 H         1 UNK         0.0788 
     97 H97        28.5180   24.8229   -1.9698 H         1 UNK         0.0788 
     98 H98        28.6011   25.6142   -3.5400 H         1 UNK         0.0788 
     99 H99        25.7009   25.2152   -0.8239 H         1 UNK         0.2993 
    100 H100       23.5532   23.3617   -0.7684 H         1 UNK         0.0949 
    101 H101       23.9091   20.9331   -0.2342 H         1 UNK         0.0767 
    102 H102       23.7734   21.2172   -1.9611 H         1 UNK         0.0767 
    103 H103       25.3519   20.9252   -1.2481 H         1 UNK         0.0767 
    104 H104       24.6979   23.7463    1.1069 H         1 UNK         0.3013 
    105 H105       31.2670   28.4291    2.6673 H         1 UNK         0.3121 
    106 H106       30.4923   26.1575    4.0463 H         1 UNK         0.0774 
    107 H107       28.4318   28.4480    4.1862 H         1 UNK         0.0815 
    108 H108       28.5767   27.2001    5.4134 H         1 UNK         0.0815 
    109 H109       28.1240   26.7571    3.7922 H         1 UNK         0.0815 
    110 H110       30.8853   26.5379    6.3748 H         1 UNK         0.2987 
    111 H111       32.9840   28.4638    6.9101 H         1 UNK         0.0949 
    112 H112       31.5696   26.4553    8.7348 H         1 UNK         0.0806 
    113 H113       33.0442   26.1552    7.8137 H         1 UNK         0.0806 
    114 H114       33.0455   27.3327    9.1138 H         1 UNK         0.0806 
    115 H115       31.1025   30.0235    6.1659 H         1 UNK         0.3010 
    116 H116       30.5130   31.9512    8.0999 H         1 UNK         0.0829 
    117 H117       28.7878   30.4435    9.0640 H         1 UNK         0.0813 
    118 H118       27.9730   31.7271    8.1993 H         1 UNK         0.0813 
    119 H119       28.1080   30.1345    7.4668 H         1 UNK         0.0813 
    120 H120       30.0318   30.4619    4.9562 H         1 UNK         0.3038 
    121 H121       29.1016   33.0158    3.7371 H         1 UNK         0.0769 
    122 H122       28.8283   30.1641    2.6478 H         1 UNK         0.0811 
    123 H123       28.1319   31.6406    1.9798 H         1 UNK         0.0811 
    124 H124       27.5553   31.0202    3.5093 H         1 UNK         0.0811 
    125 H125       30.1048   31.3283    1.1782 H         1 UNK         0.3204 
    126 H126       32.5508   32.8688    0.9762 H         1 UNK         0.0748 
    127 H127       32.5233   32.1563   -1.3570 H         1 UNK         0.0771 
    128 H128       31.3192   30.9227   -1.0341 H         1 UNK         0.0771 
    129 H129       30.8967   32.6289   -0.8966 H         1 UNK         0.0771 
    130 H130       33.1767   31.3544    3.0145 H         1 UNK         0.2980 
    131 H131       35.5821   30.1150    2.2436 H         1 UNK         0.0545 
    132 H132       33.1266   30.0336    4.9382 H         1 UNK         0.3459 
    133 H133       34.2508   30.6878    6.1200 H         1 UNK         0.3459 
    134 H134       33.4223   28.1500    3.1262 H         1 UNK         0.0616 
    135 H135       34.3171   28.1321    1.6384 H         1 UNK         0.0616 
    136 H136       33.9897   26.6160    5.0415 H         1 UNK         0.0634 
    137 H137       35.2216   25.3902    4.8722 H         1 UNK         0.0634 
@<TRIPOS>BOND
     1    1    2 1    
     2    1   72 1    
     3    1   73 1    
     4    1   74 1    
     5    2    3 2    
     6    2    4 am   BACKBONE|DICT|INTERRES
     7    4    5 1    
     8    4   75 1    
     9    5    6 1    
    10    5   35 1    
    11    5   76 1    
    12    6    7 1    
    13    6   77 1    
    14    6   78 1    
    15    7    8 1    
    16    8    9 1    
    17    8   79 1    
    18    8   80 1    
    19    9   10 ar   
    20    9   14 ar   
    21   10   11 ar   
    22   10   81 1    
    23   11   12 ar   
    24   11   71 1    
    25   12   13 ar   
    26   12   82 1    
    27   13   14 ar   
    28   13   15 1    
    29   14   83 1    
    30   15   16 1    
    31   15   84 1    
    32   15   85 1    
    33   16   17 1    
    34   17   18 1    
    35   17   86 1    
    36   17   87 1    
    37   18   19 1    
    38   18   37 1    
    39   18   88 1    
    40   19   20 am   BACKBONE|DICT|INTERRES
    41   19   89 1    
    42   20   21 2    
    43   20   22 1    
    44   22   23 1    
    45   22   24 1    
    46   22   90 1    
    47   23   91 1    
    48   23   92 1    
    49   23   93 1    
    50   24   25 am   BACKBONE|DICT|INTERRES
    51   24   94 1    
    52   25   26 2    
    53   25   27 1    
    54   27   28 1    
    55   27   29 1    
    56   27   95 1    
    57   28   96 1    
    58   28   97 1    
    59   28   98 1    
    60   29   30 am   BACKBONE|DICT|INTERRES
    61   29   99 1    
    62   30   31 2    
    63   30   32 1    
    64   32   33 1    
    65   32   34 1    
    66   32  100 1    
    67   33  101 1    
    68   33  102 1    
    69   33  103 1    
    70   34   35 am   BACKBONE|DICT|INTERRES
    71   34  104 1    
    72   35   36 2    
    73   37   38 2    
    74   37   39 am   BACKBONE|DICT|INTERRES
    75   39   40 1    
    76   39  105 1    
    77   40   41 1    
    78   40   42 1    
    79   40  106 1    
    80   41  107 1    
    81   41  108 1    
    82   41  109 1    
    83   42   43 2    
    84   42   44 am   BACKBONE|DICT|INTERRES
    85   44   45 1    
    86   44  110 1    
    87   45   46 1    
    88   45   47 1    
    89   45  111 1    
    90   46  112 1    
    91   46  113 1    
    92   46  114 1    
    93   47   48 2    
    94   47   49 am   BACKBONE|DICT|INTERRES
    95   49   50 1    
    96   49  115 1    
    97   50   51 1    
    98   50   52 1    
    99   50  116 1    
   100   51  117 1    
   101   51  118 1    
   102   51  119 1    
   103   52   53 2    
   104   52   54 am   BACKBONE|DICT|INTERRES
   105   54   55 1    
   106   54  120 1    
   107   55   56 1    
   108   55   57 1    
   109   55  121 1    
   110   56  122 1    
   111   56  123 1    
   112   56  124 1    
   113   57   58 2    
   114   57   59 am   BACKBONE|DICT|INTERRES
   115   59   60 1    
   116   59  125 1    
   117   60   61 1    
   118   60   62 1    
   119   60  126 1    
   120   61  127 1    
   121   61  128 1    
   122   61  129 1    
   123   62   63 2    
   124   62   64 am   BACKBONE|DICT|INTERRES
   125   64   65 1    
   126   64  130 1    
   127   65   66 1    
   128   65   69 1    
   129   65  131 1    
   130   66   67 am   BACKBONE|DICT|INTERRES
   131   66   68 2    
   132   67  132 1    
   133   67  133 1    
   134   69   70 1    
   135   69  134 1    
   136   69  135 1    
   137   70   71 1    
   138   71  136 1    
   139   71  137 1    
@<TRIPOS>SUBSTRUCTURE
     1 UNK         1 GROUP             0       ****    0 ROOT    
