@<TRIPOS>MOLECULE
3R136
137   139    1
SMALL
USER_CHARGES


@<TRIPOS>ATOM
      1 CA         26.8126   24.6620    5.6602 C.3       0 UNK        -0.1979 
      2 C          27.4475   23.5738    4.8069 C.2       0 UNK         0.4864 
      3 O          26.8234   22.5372    4.5780 O.2       0 UNK        -0.5359 
      4 N          28.6819   23.8057    4.3409 N.am      1 UNK        -0.4318 
      5 CA         29.4708   22.9125    3.4830 C.3       1 UNK         0.0824 
      6 C6         30.9020   23.4732    3.3077 C.3       12 UNK        -0.0944 
      7 S7         32.1589   22.2302    2.8572 S.3       12 UNK        -0.2672 
      8 C8         32.3532   22.4567    1.0558 C.3       12 UNK         0.0333 
      9 C9         32.4741   23.9153    0.6252 C.ar      12 UNK        -0.0807 
     10 C10        33.4604   24.7496    1.1621 C.ar      12 UNK        -0.0894 
     11 C11        33.5416   26.0890    0.7697 C.ar      12 UNK        -0.0804 
     12 C12        32.6376   26.5877   -0.1730 C.ar      12 UNK        -0.0824 
     13 C13        31.6450   25.7657   -0.7238 C.ar      12 UNK        -0.0762 
     14 C14        31.5780   24.4310   -0.3148 C.ar      12 UNK        -0.0782 
     15 C15        30.6316   26.2498   -1.7659 C.3       12 UNK         0.0230 
     16 S16        30.7897   27.9879   -2.2980 S.3       12 UNK        -0.2608 
     17 C17        30.0437   28.8661   -0.8828 C.3       12 UNK        -0.0989 
     18 CA         28.7429   29.5979   -1.2957 C.3       5 UNK         0.0716 
     19 N          27.6924   28.6639   -1.7221 N.am      5 UNK        -0.4135 
     20 C          26.8114   28.9231   -2.6994 C.2       4 UNK         0.5031 
     21 O          26.7995   29.9685   -3.3509 O.2       4 UNK        -0.5229 
     22 CA         25.7488   27.8496   -3.0055 C.3       4 UNK         0.0329 
     23 CB         26.2258   26.9449   -4.1533 C.3       4 UNK        -0.2001 
     24 N          25.3709   27.0116   -1.8635 N.am      4 UNK        -0.4303 
     25 C          24.8851   27.4494   -0.6932 C.2       3 UNK         0.5044 
     26 O          24.7046   28.6384   -0.4289 O.2       3 UNK        -0.5152 
     27 CA         24.5822   26.3906    0.3834 C.3       3 UNK         0.0319 
     28 CB         23.0818   26.0569    0.3934 C.3       3 UNK        -0.2001 
     29 N          25.3531   25.1426    0.2831 N.am      3 UNK        -0.4354 
     30 C          26.6899   25.0558    0.2991 C.2       2 UNK         0.4964 
     31 O          27.4435   26.0299    0.2469 O.2       2 UNK        -0.5047 
     32 CA         27.2964   23.6540    0.3931 C.3       2 UNK         0.0288 
     33 CB         27.9535   23.2412   -0.9373 C.3       2 UNK        -0.2113 
     34 N          28.2539   23.6900    1.4956 N.am      2 UNK        -0.4145 
     35 C          28.7698   22.6305    2.1332 C.2       1 UNK         0.5006 
     36 O          28.6532   21.4690    1.7379 O.2       1 UNK        -0.5103 
     37 C          28.2655   30.5705   -0.1942 C.2       5 UNK         0.5055 
     38 O          29.0319   31.4659    0.1662 O.2       5 UNK        -0.5220 
     39 N          27.0312   30.4060    0.3129 N.am      6 UNK        -0.4450 
     40 CA         26.3756   31.1807    1.3753 C.3       6 UNK         0.0367 
     41 CB         26.1656   32.6541    0.9671 C.3       6 UNK        -0.1929 
     42 C          27.0782   31.0398    2.7361 C.2       6 UNK         0.5070 
     43 O          26.5958   30.2996    3.5930 O.2       6 UNK        -0.5237 
     44 N          28.2314   31.6992    2.9025 N.am      7 UNK        -0.4739 
     45 CA         29.1010   31.6337    4.0837 C.3       7 UNK         0.0276 
     46 CB         29.9203   32.9342    4.1729 C.3       7 UNK        -0.1927 
     47 C          29.9950   30.3768    4.0638 C.2       7 UNK         0.5013 
     48 O          31.1977   30.4576    4.3305 O.2       7 UNK        -0.5193 
     49 N          29.3883   29.2289    3.7397 N.am      8 UNK        -0.4253 
     50 CA         30.0180   27.9291    3.5089 C.3       8 UNK         0.0242 
     51 CB         29.0415   27.0695    2.6938 C.3       8 UNK        -0.2000 
     52 C          30.4633   27.2444    4.8134 C.2       8 UNK         0.4948 
     53 O          30.0404   26.1253    5.1058 O.2       8 UNK        -0.5275 
     54 N          31.2988   27.9484    5.5756 N.am      9 UNK        -0.4246 
     55 CA         31.9006   27.5289    6.8375 C.3       9 UNK         0.0261 
     56 CB         30.8675   27.5420    7.9799 C.3       9 UNK        -0.1959 
     57 C          33.0942   28.4342    7.1569 C.2       9 UNK         0.5033 
     58 O          34.1514   27.9289    7.5348 O.2       9 UNK        -0.5390 
     59 N          32.9294   29.7506    6.9443 N.am      10 UNK        -0.4215 
     60 CA         33.9751   30.7691    7.0991 C.3       10 UNK         0.0240 
     61 CB         33.3562   32.1622    6.8988 C.3       10 UNK        -0.1982 
     62 C          35.1698   30.5700    6.1484 C.2       10 UNK         0.4970 
     63 O          36.2936   30.9232    6.5069 O.2       10 UNK        -0.4916 
     64 N          34.9057   29.9870    4.9730 N.am      11 UNK        -0.4279 
     65 CA         35.9097   29.5412    3.9998 C.3       11 UNK         0.1003 
     66 C          36.7055   28.2633    4.4058 C.2       11 UNK         0.5709 
     67 N          36.3812   27.5814    5.4993 N.am      11 UNK        -0.7358 
     68 O          37.6514   27.8898    3.7162 O.2       11 UNK        -0.4999 
     69 C69        35.2954   29.4333    2.5801 C.3       12 UNK        -0.0954 
     70 S70        33.9037   28.2541    2.4539 S.3       12 UNK        -0.2268 
     71 C71        34.6150   27.0048    1.3375 C.3       12 UNK         0.0203 
     72 H72        27.4804   25.5117    5.8019 H         1 UNK         0.0888 
     73 H73        25.8998   25.0241    5.1881 H         1 UNK         0.0888 
     74 H74        26.5561   24.2668    6.6427 H         1 UNK         0.0888 
     75 H75        29.1526   24.6695    4.6159 H         1 UNK         0.3017 
     76 H76        29.5403   21.9613    4.0150 H         1 UNK         0.0873 
     77 H77        31.2461   23.8797    4.2601 H         1 UNK         0.0745 
     78 H78        30.9115   24.3229    2.6271 H         1 UNK         0.0745 
     79 H79        31.5067   21.9772    0.5615 H         1 UNK         0.0705 
     80 H80        33.2424   21.9166    0.7283 H         1 UNK         0.0705 
     81 H81        34.1557   24.3562    1.8911 H         1 UNK         0.1334 
     82 H82        32.7234   27.6237   -0.4662 H         1 UNK         0.1417 
     83 H83        30.8231   23.7828   -0.7350 H         1 UNK         0.1562 
     84 H84        29.6223   26.0981   -1.3835 H         1 UNK         0.0748 
     85 H85        30.7229   25.6214   -2.6529 H         1 UNK         0.0748 
     86 H86        30.7891   29.5746   -0.5154 H         1 UNK         0.0940 
     87 H87        29.8599   28.1719   -0.0622 H         1 UNK         0.0940 
     88 H88        29.0020   30.2373   -2.1426 H         1 UNK         0.0703 
     89 H89        27.6327   27.7836   -1.2240 H         1 UNK         0.3081 
     90 H90        24.8480   28.3727   -3.3329 H         1 UNK         0.0719 
     91 H91        25.4478   26.2450   -4.4590 H         1 UNK         0.0809 
     92 H92        26.4901   27.5351   -5.0321 H         1 UNK         0.0809 
     93 H93        27.1077   26.3676   -3.8719 H         1 UNK         0.0809 
     94 H94        25.4930   26.0158   -1.9739 H         1 UNK         0.2990 
     95 H95        24.8341   26.8428    1.3451 H         1 UNK         0.0690 
     96 H96        22.4800   26.9615    0.4943 H         1 UNK         0.0788 
     97 H97        22.8241   25.4063    1.2293 H         1 UNK         0.0788 
     98 H98        22.7726   25.5612   -0.5278 H         1 UNK         0.0788 
     99 H99        24.8145   24.2881    0.3017 H         1 UNK         0.2993 
    100 H100       26.5152   22.9337    0.6456 H         1 UNK         0.0949 
    101 H101       28.6523   23.9940   -1.2959 H         1 UNK         0.0767 
    102 H102       28.4890   22.2959   -0.8517 H         1 UNK         0.0767 
    103 H103       27.1983   23.1131   -1.7136 H         1 UNK         0.0767 
    104 H104       28.3984   24.6126    1.8827 H         1 UNK         0.3013 
    105 H105       26.4596   29.6559   -0.0625 H         1 UNK         0.3121 
    106 H106       25.3847   30.7385    1.4929 H         1 UNK         0.0774 
    107 H107       27.1037   33.1779    0.7838 H         1 UNK         0.0815 
    108 H108       25.6378   33.2012    1.7493 H         1 UNK         0.0815 
    109 H109       25.5641   32.7268    0.0610 H         1 UNK         0.0815 
    110 H110       28.6167   32.1527    2.0806 H         1 UNK         0.2987 
    111 H111       28.4781   31.5679    4.9784 H         1 UNK         0.0949 
    112 H112       30.5937   33.0442    3.3219 H         1 UNK         0.0806 
    113 H113       29.2725   33.8103    4.2046 H         1 UNK         0.0806 
    114 H114       30.5303   32.9525    5.0770 H         1 UNK         0.0806 
    115 H115       28.3829   29.2707    3.6144 H         1 UNK         0.3010 
    116 H116       30.9102   28.0886    2.8999 H         1 UNK         0.0829 
    117 H117       29.5392   26.1811    2.3087 H         1 UNK         0.0813 
    118 H118       28.1817   26.7508    3.2844 H         1 UNK         0.0813 
    119 H119       28.6601   27.6225    1.8369 H         1 UNK         0.0813 
    120 H120       31.5666   28.8608    5.2148 H         1 UNK         0.3038 
    121 H121       32.2783   26.5114    6.7151 H         1 UNK         0.0769 
    122 H122       30.4141   28.5258    8.1055 H         1 UNK         0.0811 
    123 H123       31.3325   27.2709    8.9287 H         1 UNK         0.0811 
    124 H124       30.0656   26.8259    7.7996 H         1 UNK         0.0811 
    125 H125       32.0258   30.0883    6.6442 H         1 UNK         0.3204 
    126 H126       34.3545   30.7025    8.1209 H         1 UNK         0.0748 
    127 H127       32.5605   32.3520    7.6195 H         1 UNK         0.0771 
    128 H128       34.1046   32.9448    7.0317 H         1 UNK         0.0771 
    129 H129       32.9381   32.2775    5.8976 H         1 UNK         0.0771 
    130 H130       33.9506   29.7489    4.7513 H         1 UNK         0.2980 
    131 H131       36.6622   30.3301    3.9475 H         1 UNK         0.0545 
    132 H132       36.9181   26.7636    5.7388 H         1 UNK         0.3459 
    133 H133       35.6147   27.8677    6.0966 H         1 UNK         0.3459 
    134 H134       34.9191   30.4112    2.2762 H         1 UNK         0.0616 
    135 H135       36.0677   29.1851    1.8501 H         1 UNK         0.0616 
    136 H136       35.1245   27.4997    0.5095 H         1 UNK         0.0634 
    137 H137       35.3741   26.4348    1.8757 H         1 UNK         0.0634 
@<TRIPOS>BOND
     1    1    2 1    
     2    1   72 1    
     3    1   73 1    
     4    1   74 1    
     5    2    3 2    
     6    2    4 am   BACKBONE|DICT|INTERRES
     7    4    5 1    
     8    4   75 1    
     9    5    6 1    
    10    5   35 1    
    11    5   76 1    
    12    6    7 1    
    13    6   77 1    
    14    6   78 1    
    15    7    8 1    
    16    8    9 1    
    17    8   79 1    
    18    8   80 1    
    19    9   10 ar   
    20    9   14 ar   
    21   10   11 ar   
    22   10   81 1    
    23   11   12 ar   
    24   11   71 1    
    25   12   13 ar   
    26   12   82 1    
    27   13   14 ar   
    28   13   15 1    
    29   14   83 1    
    30   15   16 1    
    31   15   84 1    
    32   15   85 1    
    33   16   17 1    
    34   17   18 1    
    35   17   86 1    
    36   17   87 1    
    37   18   19 1    
    38   18   37 1    
    39   18   88 1    
    40   19   20 am   BACKBONE|DICT|INTERRES
    41   19   89 1    
    42   20   21 2    
    43   20   22 1    
    44   22   23 1    
    45   22   24 1    
    46   22   90 1    
    47   23   91 1    
    48   23   92 1    
    49   23   93 1    
    50   24   25 am   BACKBONE|DICT|INTERRES
    51   24   94 1    
    52   25   26 2    
    53   25   27 1    
    54   27   28 1    
    55   27   29 1    
    56   27   95 1    
    57   28   96 1    
    58   28   97 1    
    59   28   98 1    
    60   29   30 am   BACKBONE|DICT|INTERRES
    61   29   99 1    
    62   30   31 2    
    63   30   32 1    
    64   32   33 1    
    65   32   34 1    
    66   32  100 1    
    67   33  101 1    
    68   33  102 1    
    69   33  103 1    
    70   34   35 am   BACKBONE|DICT|INTERRES
    71   34  104 1    
    72   35   36 2    
    73   37   38 2    
    74   37   39 am   BACKBONE|DICT|INTERRES
    75   39   40 1    
    76   39  105 1    
    77   40   41 1    
    78   40   42 1    
    79   40  106 1    
    80   41  107 1    
    81   41  108 1    
    82   41  109 1    
    83   42   43 2    
    84   42   44 am   BACKBONE|DICT|INTERRES
    85   44   45 1    
    86   44  110 1    
    87   45   46 1    
    88   45   47 1    
    89   45  111 1    
    90   46  112 1    
    91   46  113 1    
    92   46  114 1    
    93   47   48 2    
    94   47   49 am   BACKBONE|DICT|INTERRES
    95   49   50 1    
    96   49  115 1    
    97   50   51 1    
    98   50   52 1    
    99   50  116 1    
   100   51  117 1    
   101   51  118 1    
   102   51  119 1    
   103   52   53 2    
   104   52   54 am   BACKBONE|DICT|INTERRES
   105   54   55 1    
   106   54  120 1    
   107   55   56 1    
   108   55   57 1    
   109   55  121 1    
   110   56  122 1    
   111   56  123 1    
   112   56  124 1    
   113   57   58 2    
   114   57   59 am   BACKBONE|DICT|INTERRES
   115   59   60 1    
   116   59  125 1    
   117   60   61 1    
   118   60   62 1    
   119   60  126 1    
   120   61  127 1    
   121   61  128 1    
   122   61  129 1    
   123   62   63 2    
   124   62   64 am   BACKBONE|DICT|INTERRES
   125   64   65 1    
   126   64  130 1    
   127   65   66 1    
   128   65   69 1    
   129   65  131 1    
   130   66   67 am   BACKBONE|DICT|INTERRES
   131   66   68 2    
   132   67  132 1    
   133   67  133 1    
   134   69   70 1    
   135   69  134 1    
   136   69  135 1    
   137   70   71 1    
   138   71  136 1    
   139   71  137 1    
@<TRIPOS>SUBSTRUCTURE
     1 UNK         1 GROUP             0       ****    0 ROOT    
