@<TRIPOS>MOLECULE
3R136
137   139    1
SMALL
USER_CHARGES


@<TRIPOS>ATOM
      1 CA         27.0610   20.8461    0.3111 C.3       0 UNK        -0.1979 
      2 C          27.8229   21.8591    1.1516 C.2       0 UNK         0.4864 
      3 O          27.5712   21.9630    2.3533 O.2       0 UNK        -0.5359 
      4 N          28.7377   22.6139    0.5246 N.am      1 UNK        -0.4318 
      5 CA         29.5958   23.6428    1.1300 C.3       1 UNK         0.0824 
      6 C6         30.7416   23.0520    1.9998 C.3       12 UNK        -0.0944 
      7 S7         31.8819   22.0464    0.9853 S.3       12 UNK        -0.2672 
      8 C8         33.3500   23.1228    0.8253 C.3       12 UNK         0.0333 
      9 C9         33.0075   24.5318    0.3551 C.ar      12 UNK        -0.0807 
     10 C10        33.3255   25.6323    1.1569 C.ar      12 UNK        -0.0894 
     11 C11        32.9681   26.9247    0.7631 C.ar      12 UNK        -0.0804 
     12 C12        32.2775   27.1117   -0.4374 C.ar      12 UNK        -0.0824 
     13 C13        31.9548   26.0208   -1.2489 C.ar      12 UNK        -0.0762 
     14 C14        32.3525   24.7366   -0.8639 C.ar      12 UNK        -0.0782 
     15 C15        31.1570   26.2232   -2.5280 C.3       12 UNK         0.0230 
     16 S16        29.4311   25.6697   -2.3164 S.3       12 UNK        -0.2608 
     17 C17        28.4488   27.1645   -2.7159 C.3       12 UNK        -0.0989 
     18 CA         27.5688   27.6967   -1.5462 C.3       5 UNK         0.0716 
     19 N          26.7491   26.6492   -0.9321 N.am      5 UNK        -0.4135 
     20 C          25.6023   26.1913   -1.4431 C.2       4 UNK         0.5031 
     21 O          25.0222   26.7262   -2.3895 O.2       4 UNK        -0.5229 
     22 CA         25.0038   24.9073   -0.8485 C.3       4 UNK         0.0329 
     23 CB         25.5880   23.6776   -1.5647 C.3       4 UNK        -0.2001 
     24 N          25.1902   24.7549    0.6018 N.am      4 UNK        -0.4303 
     25 C          24.2061   24.3823    1.4383 C.2       3 UNK         0.5044 
     26 O          23.0310   24.2621    1.0869 O.2       3 UNK        -0.5152 
     27 CA         24.5537   24.0425    2.9019 C.3       3 UNK         0.0319 
     28 CB         24.2550   22.5618    3.1961 C.3       3 UNK        -0.2001 
     29 N          25.9470   24.3151    3.2540 N.am      3 UNK        -0.4354 
     30 C          26.3857   25.4794    3.7529 C.2       2 UNK         0.4964 
     31 O          25.6454   26.4280    4.0116 O.2       2 UNK        -0.5047 
     32 CA         27.9030   25.6297    3.9892 C.3       2 UNK         0.0288 
     33 CB         28.2408   25.4093    5.4723 C.3       2 UNK        -0.2113 
     34 N          28.7419   24.7451    3.1729 N.am      2 UNK        -0.4145 
     35 C          28.7408   24.7131    1.8330 C.2       1 UNK         0.5006 
     36 O          28.0309   25.4459    1.1435 O.2       1 UNK        -0.5103 
     37 C          28.3332   28.4987   -0.4758 C.2       5 UNK         0.5055 
     38 O          29.4871   28.8704   -0.6927 O.2       5 UNK        -0.5220 
     39 N          27.6625   28.7747    0.6540 N.am      6 UNK        -0.4450 
     40 CA         28.1612   29.5991    1.7587 C.3       6 UNK         0.0367 
     41 CB         27.0989   29.6533    2.8679 C.3       6 UNK        -0.1929 
     42 C          28.5185   31.0252    1.3021 C.2       6 UNK         0.5070 
     43 O          27.6866   31.6771    0.6655 O.2       6 UNK        -0.5237 
     44 N          29.7264   31.4879    1.6430 N.am      7 UNK        -0.4739 
     45 CA         30.2329   32.8141    1.2860 C.3       7 UNK         0.0276 
     46 CB         30.6192   32.8760   -0.2065 C.3       7 UNK        -0.1927 
     47 C          31.4132   33.2036    2.1810 C.2       7 UNK         0.5013 
     48 O          31.3530   34.2371    2.8486 O.2       7 UNK        -0.5193 
     49 N          32.4656   32.3749    2.1737 N.am      8 UNK        -0.4253 
     50 CA         33.6694   32.5588    2.9871 C.3       8 UNK         0.0242 
     51 CB         34.8129   31.7306    2.3767 C.3       8 UNK        -0.2000 
     52 C          33.4307   32.1359    4.4440 C.2       8 UNK         0.4948 
     53 O          32.5338   31.3352    4.7115 O.2       8 UNK        -0.5275 
     54 N          34.2876   32.6181    5.3555 N.am      9 UNK        -0.4246 
     55 CA         34.2599   32.2959    6.7904 C.3       9 UNK         0.0261 
     56 CB         35.3460   33.1069    7.5157 C.3       9 UNK        -0.1959 
     57 C          34.4072   30.7943    7.1085 C.2       9 UNK         0.5033 
     58 O          33.8929   30.3403    8.1311 O.2       9 UNK        -0.5390 
     59 N          35.0645   30.0476    6.2099 N.am      10 UNK        -0.4215 
     60 CA         35.1964   28.5889    6.2446 C.3       10 UNK         0.0240 
     61 CB         36.2538   28.1654    5.2106 C.3       10 UNK        -0.1982 
     62 C          33.8780   27.8247    6.0018 C.2       10 UNK         0.4970 
     63 O          33.8305   26.6287    6.2923 O.2       10 UNK        -0.4916 
     64 N          32.8502   28.4999    5.4737 N.am      11 UNK        -0.4279 
     65 CA         31.5343   27.9354    5.1465 C.3       11 UNK         0.1003 
     66 C          30.3519   28.8216    5.6328 C.2       11 UNK         0.5709 
     67 N          30.5564   29.7344    6.5753 N.am      11 UNK        -0.7358 
     68 O          29.2227   28.6604    5.1811 O.2       11 UNK        -0.4999 
     69 C69        31.4452   27.4978    3.6580 C.3       12 UNK        -0.0954 
     70 S70        31.8600   28.8153    2.4620 S.3       12 UNK        -0.2268 
     71 C71        33.3224   28.1217    1.6331 C.3       12 UNK         0.0203 
     72 H72        27.3332   20.9018   -0.7428 H         1 UNK         0.0888 
     73 H73        27.2701   19.8365    0.6634 H         1 UNK         0.0888 
     74 H74        25.9888   21.0203    0.3943 H         1 UNK         0.0888 
     75 H75        28.8801   22.4818   -0.4665 H         1 UNK         0.3017 
     76 H76        30.0501   24.1725    0.2954 H         1 UNK         0.0873 
     77 H77        31.3097   23.8425    2.4937 H         1 UNK         0.0745 
     78 H78        30.3428   22.4166    2.7924 H         1 UNK         0.0745 
     79 H79        33.8654   23.1498    1.7867 H         1 UNK         0.0705 
     80 H80        34.0453   22.6698    0.1174 H         1 UNK         0.0705 
     81 H81        33.8420   25.4833    2.0954 H         1 UNK         0.1334 
     82 H82        31.9760   28.1088   -0.7285 H         1 UNK         0.1417 
     83 H83        32.0995   23.8882   -1.4857 H         1 UNK         0.1562 
     84 H84        31.6144   25.6521   -3.3372 H         1 UNK         0.0748 
     85 H85        31.1966   27.2685   -2.8358 H         1 UNK         0.0748 
     86 H86        27.7955   26.8954   -3.5473 H         1 UNK         0.0940 
     87 H87        29.0865   27.9561   -3.1117 H         1 UNK         0.0940 
     88 H88        26.8919   28.4365   -1.9793 H         1 UNK         0.0703 
     89 H89        27.1992   26.1620   -0.1559 H         1 UNK         0.3081 
     90 H90        23.9385   24.9470   -1.0850 H         1 UNK         0.0719 
     91 H91        26.6574   23.5750   -1.3783 H         1 UNK         0.0809 
     92 H92        25.0965   22.7602   -1.2416 H         1 UNK         0.0809 
     93 H93        25.4525   23.7522   -2.6447 H         1 UNK         0.0809 
     94 H94        26.1283   24.8823    0.9659 H         1 UNK         0.2990 
     95 H95        23.8952   24.6423    3.5337 H         1 UNK         0.0690 
     96 H96        24.4674   22.3134    4.2361 H         1 UNK         0.0788 
     97 H97        24.8452   21.8964    2.5658 H         1 UNK         0.0788 
     98 H98        23.2040   22.3301    3.0183 H         1 UNK         0.0788 
     99 H99        26.6145   23.5715    3.0651 H         1 UNK         0.2993 
    100 H100       28.1600   26.6563    3.7240 H         1 UNK         0.0949 
    101 H101       29.2972   25.5891    5.6707 H         1 UNK         0.0767 
    102 H102       27.6751   26.0951    6.1049 H         1 UNK         0.0767 
    103 H103       28.0039   24.3944    5.7941 H         1 UNK         0.0767 
    104 H104       29.2988   24.0657    3.6700 H         1 UNK         0.3013 
    105 H105       26.7097   28.4515    0.7293 H         1 UNK         0.3121 
    106 H106       29.0493   29.1107    2.1589 H         1 UNK         0.0774 
    107 H107       27.4463   30.2552    3.7086 H         1 UNK         0.0815 
    108 H108       26.1652   30.0931    2.5155 H         1 UNK         0.0815 
    109 H109       26.8784   28.6611    3.2571 H         1 UNK         0.0815 
    110 H110       30.3376   30.9069    2.2039 H         1 UNK         0.2987 
    111 H111       29.4411   33.5452    1.4661 H         1 UNK         0.0949 
    112 H112       31.3334   32.0967   -0.4745 H         1 UNK         0.0806 
    113 H113       29.7466   32.7583   -0.8489 H         1 UNK         0.0806 
    114 H114       31.0718   33.8371   -0.4548 H         1 UNK         0.0806 
    115 H115       32.4171   31.5299    1.6241 H         1 UNK         0.3010 
    116 H116       33.9475   33.6149    2.9681 H         1 UNK         0.0829 
    117 H117       34.9665   31.9769    1.3257 H         1 UNK         0.0813 
    118 H118       35.7556   31.9220    2.8908 H         1 UNK         0.0813 
    119 H119       34.6178   30.6604    2.4465 H         1 UNK         0.0813 
    120 H120       35.0054   33.2618    5.0531 H         1 UNK         0.3038 
    121 H121       33.2865   32.6095    7.1736 H         1 UNK         0.0769 
    122 H122       36.3449   32.8617    7.1524 H         1 UNK         0.0811 
    123 H123       35.3316   32.9068    8.5882 H         1 UNK         0.0811 
    124 H124       35.1944   34.1789    7.3878 H         1 UNK         0.0811 
    125 H125       35.4558   30.5172    5.4070 H         1 UNK         0.3204 
    126 H126       35.5536   28.3079    7.2375 H         1 UNK         0.0748 
    127 H127       36.4086   27.0855    5.2282 H         1 UNK         0.0771 
    128 H128       35.9572   28.4349    4.1960 H         1 UNK         0.0771 
    129 H129       37.2185   28.6306    5.4147 H         1 UNK         0.0771 
    130 H130       32.9423   29.4887    5.2581 H         1 UNK         0.2980 
    131 H131       31.4025   27.0272    5.7365 H         1 UNK         0.0545 
    132 H132       31.4758   29.8792    6.9615 H         1 UNK         0.3459 
    133 H133       29.7820   30.2981    6.8857 H         1 UNK         0.3459 
    134 H134       32.1135   26.6508    3.5060 H         1 UNK         0.0616 
    135 H135       30.4516   27.1219    3.4166 H         1 UNK         0.0616 
    136 H136       34.0707   27.8580    2.3821 H         1 UNK         0.0634 
    137 H137       33.7708   28.8937    1.0069 H         1 UNK         0.0634 
@<TRIPOS>BOND
     1    1    2 1    
     2    1   72 1    
     3    1   73 1    
     4    1   74 1    
     5    2    3 2    
     6    2    4 am   BACKBONE|DICT|INTERRES
     7    4    5 1    
     8    4   75 1    
     9    5    6 1    
    10    5   35 1    
    11    5   76 1    
    12    6    7 1    
    13    6   77 1    
    14    6   78 1    
    15    7    8 1    
    16    8    9 1    
    17    8   79 1    
    18    8   80 1    
    19    9   10 ar   
    20    9   14 ar   
    21   10   11 ar   
    22   10   81 1    
    23   11   12 ar   
    24   11   71 1    
    25   12   13 ar   
    26   12   82 1    
    27   13   14 ar   
    28   13   15 1    
    29   14   83 1    
    30   15   16 1    
    31   15   84 1    
    32   15   85 1    
    33   16   17 1    
    34   17   18 1    
    35   17   86 1    
    36   17   87 1    
    37   18   19 1    
    38   18   37 1    
    39   18   88 1    
    40   19   20 am   BACKBONE|DICT|INTERRES
    41   19   89 1    
    42   20   21 2    
    43   20   22 1    
    44   22   23 1    
    45   22   24 1    
    46   22   90 1    
    47   23   91 1    
    48   23   92 1    
    49   23   93 1    
    50   24   25 am   BACKBONE|DICT|INTERRES
    51   24   94 1    
    52   25   26 2    
    53   25   27 1    
    54   27   28 1    
    55   27   29 1    
    56   27   95 1    
    57   28   96 1    
    58   28   97 1    
    59   28   98 1    
    60   29   30 am   BACKBONE|DICT|INTERRES
    61   29   99 1    
    62   30   31 2    
    63   30   32 1    
    64   32   33 1    
    65   32   34 1    
    66   32  100 1    
    67   33  101 1    
    68   33  102 1    
    69   33  103 1    
    70   34   35 am   BACKBONE|DICT|INTERRES
    71   34  104 1    
    72   35   36 2    
    73   37   38 2    
    74   37   39 am   BACKBONE|DICT|INTERRES
    75   39   40 1    
    76   39  105 1    
    77   40   41 1    
    78   40   42 1    
    79   40  106 1    
    80   41  107 1    
    81   41  108 1    
    82   41  109 1    
    83   42   43 2    
    84   42   44 am   BACKBONE|DICT|INTERRES
    85   44   45 1    
    86   44  110 1    
    87   45   46 1    
    88   45   47 1    
    89   45  111 1    
    90   46  112 1    
    91   46  113 1    
    92   46  114 1    
    93   47   48 2    
    94   47   49 am   BACKBONE|DICT|INTERRES
    95   49   50 1    
    96   49  115 1    
    97   50   51 1    
    98   50   52 1    
    99   50  116 1    
   100   51  117 1    
   101   51  118 1    
   102   51  119 1    
   103   52   53 2    
   104   52   54 am   BACKBONE|DICT|INTERRES
   105   54   55 1    
   106   54  120 1    
   107   55   56 1    
   108   55   57 1    
   109   55  121 1    
   110   56  122 1    
   111   56  123 1    
   112   56  124 1    
   113   57   58 2    
   114   57   59 am   BACKBONE|DICT|INTERRES
   115   59   60 1    
   116   59  125 1    
   117   60   61 1    
   118   60   62 1    
   119   60  126 1    
   120   61  127 1    
   121   61  128 1    
   122   61  129 1    
   123   62   63 2    
   124   62   64 am   BACKBONE|DICT|INTERRES
   125   64   65 1    
   126   64  130 1    
   127   65   66 1    
   128   65   69 1    
   129   65  131 1    
   130   66   67 am   BACKBONE|DICT|INTERRES
   131   66   68 2    
   132   67  132 1    
   133   67  133 1    
   134   69   70 1    
   135   69  134 1    
   136   69  135 1    
   137   70   71 1    
   138   71  136 1    
   139   71  137 1    
@<TRIPOS>SUBSTRUCTURE
     1 UNK         1 GROUP             0       ****    0 ROOT    
