@<TRIPOS>MOLECULE
3R136
137   139    1
SMALL
USER_CHARGES


@<TRIPOS>ATOM
      1 CA         29.5458   26.2922    3.1914 C.3       0 UNK        -0.1979 
      2 C          29.1651   24.8223    3.2346 C.2       0 UNK         0.4864 
      3 O          28.3078   24.4354    4.0288 O.2       0 UNK        -0.5359 
      4 N          29.7865   23.9995    2.3790 N.am      1 UNK        -0.4318 
      5 CA         29.5391   22.5528    2.2890 C.3       1 UNK         0.0824 
      6 C6         30.7075   21.8028    1.6023 C.3       12 UNK        -0.0944 
      7 S7         32.2863   22.0087    2.4962 S.3       12 UNK        -0.2672 
      8 C8         33.3706   22.7101    1.2132 C.3       12 UNK         0.0333 
      9 C9         33.0250   24.1583    0.8995 C.ar      12 UNK        -0.0807 
     10 C10        33.4823   25.1848    1.7318 C.ar      12 UNK        -0.0894 
     11 C11        33.1892   26.5198    1.4380 C.ar      12 UNK        -0.0804 
     12 C12        32.4291   26.8236    0.3046 C.ar      12 UNK        -0.0824 
     13 C13        31.9678   25.8056   -0.5355 C.ar      12 UNK        -0.0762 
     14 C14        32.2737   24.4754   -0.2360 C.ar      12 UNK        -0.0782 
     15 C15        31.1555   26.1389   -1.7791 C.3       12 UNK         0.0230 
     16 S16        29.4062   25.6774   -1.5859 S.3       12 UNK        -0.2608 
     17 C17        28.8447   26.8797   -0.3362 C.3       12 UNK        -0.0989 
     18 CA         27.8094   27.8942   -0.8808 C.3       5 UNK         0.0716 
     19 N          26.6533   27.2484   -1.5056 N.am      5 UNK        -0.4135 
     20 C          25.8385   27.8307   -2.3964 C.2       4 UNK         0.5031 
     21 O          26.0238   28.9541   -2.8659 O.2       4 UNK        -0.5229 
     22 CA         24.6003   27.0282   -2.8396 C.3       4 UNK         0.0329 
     23 CB         24.9171   26.2063   -4.0995 C.3       4 UNK        -0.2001 
     24 N          24.0937   26.1346   -1.7950 N.am      4 UNK        -0.4303 
     25 C          23.5133   26.5393   -0.6552 C.2       3 UNK         0.5044 
     26 O          23.2388   27.7123   -0.4038 O.2       3 UNK        -0.5152 
     27 CA         23.2241   25.4554    0.4014 C.3       3 UNK         0.0319 
     28 CB         21.7714   24.9666    0.2867 C.3       3 UNK        -0.2001 
     29 N          24.1324   24.3023    0.3367 N.am      3 UNK        -0.4354 
     30 C          25.4579   24.3617    0.5229 C.2       2 UNK         0.4964 
     31 O          26.0692   25.4070    0.7639 O.2       2 UNK        -0.5047 
     32 CA         26.2315   23.0528    0.3362 C.3       2 UNK         0.0288 
     33 CB         26.4258   22.7434   -1.1592 C.3       2 UNK        -0.2113 
     34 N          27.5377   23.1781    0.9747 N.am      2 UNK        -0.4145 
     35 C          28.1922   22.2008    1.6142 C.2       1 UNK         0.5006 
     36 O          27.7730   21.0438    1.6879 O.2       1 UNK        -0.5103 
     37 C          27.3414   28.8229    0.2537 C.2       5 UNK         0.5055 
     38 O          27.8053   29.9602    0.3370 O.2       5 UNK        -0.5220 
     39 N          26.4306   28.3072    1.0951 N.am      6 UNK        -0.4450 
     40 CA         25.8274   28.9219    2.2819 C.3       6 UNK         0.0367 
     41 CB         25.0593   30.2158    1.9418 C.3       6 UNK        -0.1929 
     42 C          26.8371   29.1175    3.4246 C.2       6 UNK         0.5070 
     43 O          26.7514   28.4065    4.4254 O.2       6 UNK        -0.5237 
     44 N          27.7816   30.0474    3.2517 N.am      7 UNK        -0.4739 
     45 CA         28.8674   30.3610    4.1783 C.3       7 UNK         0.0276 
     46 CB         28.3228   31.0168    5.4643 C.3       7 UNK        -0.1927 
     47 C          29.8616   31.3025    3.4880 C.2       7 UNK         0.5013 
     48 O          29.4753   32.0537    2.5889 O.2       7 UNK        -0.5193 
     49 N          31.1098   31.2754    3.9586 N.am      8 UNK        -0.4253 
     50 CA         32.2120   32.1507    3.5712 C.3       8 UNK         0.0242 
     51 CB         32.7930   31.7158    2.2128 C.3       8 UNK        -0.2000 
     52 C          33.2686   32.0694    4.6793 C.2       8 UNK         0.4948 
     53 O          33.1961   31.1709    5.5215 O.2       8 UNK        -0.5275 
     54 N          34.2574   32.9724    4.6554 N.am      9 UNK        -0.4246 
     55 CA         35.3242   33.0769    5.6647 C.3       9 UNK         0.0261 
     56 CB         36.2309   34.2693    5.3180 C.3       9 UNK        -0.1959 
     57 C          36.1704   31.8015    5.8655 C.2       9 UNK         0.5033 
     58 O          36.7371   31.6178    6.9436 O.2       9 UNK        -0.5390 
     59 N          36.2312   30.9451    4.8382 N.am      10 UNK        -0.4215 
     60 CA         36.9239   29.6568    4.8527 C.3       10 UNK         0.0240 
     61 CB         37.3152   29.3009    3.4073 C.3       10 UNK        -0.1982 
     62 C          36.1147   28.5076    5.4895 C.2       10 UNK         0.4970 
     63 O          36.6879   27.4329    5.6757 O.2       10 UNK        -0.4916 
     64 N          34.8219   28.7106    5.7811 N.am      11 UNK        -0.4279 
     65 CA         33.8968   27.6451    6.2119 C.3       11 UNK         0.1003 
     66 C          32.8261   28.0710    7.2542 C.2       11 UNK         0.5709 
     67 N          32.5764   29.3516    7.4876 N.am      11 UNK        -0.7358 
     68 O          32.2273   27.2113    7.8967 O.2       11 UNK        -0.4999 
     69 C69        33.2817   26.8767    5.0071 C.3       12 UNK        -0.0954 
     70 S70        32.5936   27.9770    3.7182 S.3       12 UNK        -0.2268 
     71 C71        33.7123   27.6414    2.3225 C.3       12 UNK         0.0203 
     72 H72        29.8940   26.6181    4.1710 H         1 UNK         0.0888 
     73 H73        30.3347   26.4854    2.4656 H         1 UNK         0.0888 
     74 H74        28.6801   26.8940    2.9218 H         1 UNK         0.0888 
     75 H75        30.5143   24.3561    1.7742 H         1 UNK         0.3017 
     76 H76        29.4664   22.1712    3.3101 H         1 UNK         0.0873 
     77 H77        30.5024   20.7310    1.5637 H         1 UNK         0.0745 
     78 H78        30.8129   22.1228    0.5651 H         1 UNK         0.0745 
     79 H79        33.3199   22.0935    0.3143 H         1 UNK         0.0705 
     80 H80        34.4035   22.6528    1.5598 H         1 UNK         0.0705 
     81 H81        34.0729   24.9415    2.6040 H         1 UNK         0.1334 
     82 H82        32.2039   27.8560    0.0736 H         1 UNK         0.1417 
     83 H83        31.9264   23.6896   -0.8933 H         1 UNK         0.1562 
     84 H84        31.5693   25.6016   -2.6337 H         1 UNK         0.0748 
     85 H85        31.2261   27.2001   -2.0231 H         1 UNK         0.0748 
     86 H86        29.7022   27.4166    0.0708 H         1 UNK         0.0940 
     87 H87        28.4353   26.3092    0.4959 H         1 UNK         0.0940 
     88 H88        28.3081   28.5098   -1.6329 H         1 UNK         0.0703 
     89 H89        26.4138   26.3345   -1.1472 H         1 UNK         0.3081 
     90 H90        23.8125   27.7438   -3.0850 H         1 UNK         0.0719 
     91 H91        25.6915   25.4608   -3.9133 H         1 UNK         0.0809 
     92 H92        24.0321   25.6880   -4.4690 H         1 UNK         0.0809 
     93 H93        25.2728   26.8504   -4.9050 H         1 UNK         0.0809 
     94 H94        24.2499   25.1458   -1.9240 H         1 UNK         0.2990 
     95 H95        23.3518   25.9195    1.3818 H         1 UNK         0.0690 
     96 H96        21.5221   24.2699    1.0873 H         1 UNK         0.0788 
     97 H97        21.5864   24.4669   -0.6651 H         1 UNK         0.0788 
     98 H98        21.0722   25.8012    0.3578 H         1 UNK         0.0788 
     99 H99        23.7095   23.4082    0.1296 H         1 UNK         0.2993 
    100 H100       25.6617   22.2503    0.8101 H         1 UNK         0.0949 
    101 H101       26.9772   23.5362   -1.6669 H         1 UNK         0.0767 
    102 H102       26.9777   21.8138   -1.3001 H         1 UNK         0.0767 
    103 H103       25.4687   22.6287   -1.6695 H         1 UNK         0.0767 
    104 H104       27.9015   24.1201    1.0137 H         1 UNK         0.3013 
    105 H105       26.1739   27.3336    0.9519 H         1 UNK         0.3121 
    106 H106       25.0902   28.2000    2.6377 H         1 UNK         0.0774 
    107 H107       24.5572   30.6106    2.8257 H         1 UNK         0.0815 
    108 H108       25.7115   31.0028    1.5632 H         1 UNK         0.0815 
    109 H109       24.2925   30.0288    1.1897 H         1 UNK         0.0815 
    110 H110       27.8286   30.5343    2.3595 H         1 UNK         0.2987 
    111 H111       29.3843   29.4320    4.4299 H         1 UNK         0.0949 
    112 H112       27.7537   31.9204    5.2422 H         1 UNK         0.0806 
    113 H113       27.6737   30.3412    6.0208 H         1 UNK         0.0806 
    114 H114       29.1347   31.2992    6.1359 H         1 UNK         0.0806 
    115 H115       31.3502   30.6579    4.7259 H         1 UNK         0.3010 
    116 H116       31.8476   33.1783    3.5116 H         1 UNK         0.0829 
    117 H117       32.0358   31.7363    1.4289 H         1 UNK         0.0813 
    118 H118       33.5994   32.3777    1.8955 H         1 UNK         0.0813 
    119 H119       33.1969   30.7057    2.2581 H         1 UNK         0.0813 
    120 H120       34.2581   33.6716    3.9260 H         1 UNK         0.3038 
    121 H121       34.8400   33.2857    6.6210 H         1 UNK         0.0769 
    122 H122       36.7174   34.1386    4.3505 H         1 UNK         0.0811 
    123 H123       37.0177   34.3924    6.0638 H         1 UNK         0.0811 
    124 H124       35.6683   35.2027    5.2894 H         1 UNK         0.0811 
    125 H125       35.7330   31.1847    3.9939 H         1 UNK         0.3204 
    126 H126       37.8426   29.7597    5.4344 H         1 UNK         0.0748 
    127 H127       37.8553   28.3539    3.3664 H         1 UNK         0.0771 
    128 H128       36.4407   29.2057    2.7629 H         1 UNK         0.0771 
    129 H129       37.9681   30.0601    2.9760 H         1 UNK         0.0771 
    130 H130       34.4015   29.6197    5.6220 H         1 UNK         0.2980 
    131 H131       34.4876   26.9162    6.7699 H         1 UNK         0.0545 
    132 H132       32.9651   30.0795    6.8936 H         1 UNK         0.3459 
    133 H133       31.8944   29.5930    8.1877 H         1 UNK         0.3459 
    134 H134       32.4977   26.1897    5.3308 H         1 UNK         0.0616 
    135 H135       34.0504   26.2414    4.5676 H         1 UNK         0.0616 
    136 H136       34.7131   27.4048    2.6859 H         1 UNK         0.0634 
    137 H137       33.8205   28.5511    1.7321 H         1 UNK         0.0634 
@<TRIPOS>BOND
     1    1    2 1    
     2    1   72 1    
     3    1   73 1    
     4    1   74 1    
     5    2    3 2    
     6    2    4 am   BACKBONE|DICT|INTERRES
     7    4    5 1    
     8    4   75 1    
     9    5    6 1    
    10    5   35 1    
    11    5   76 1    
    12    6    7 1    
    13    6   77 1    
    14    6   78 1    
    15    7    8 1    
    16    8    9 1    
    17    8   79 1    
    18    8   80 1    
    19    9   10 ar   
    20    9   14 ar   
    21   10   11 ar   
    22   10   81 1    
    23   11   12 ar   
    24   11   71 1    
    25   12   13 ar   
    26   12   82 1    
    27   13   14 ar   
    28   13   15 1    
    29   14   83 1    
    30   15   16 1    
    31   15   84 1    
    32   15   85 1    
    33   16   17 1    
    34   17   18 1    
    35   17   86 1    
    36   17   87 1    
    37   18   19 1    
    38   18   37 1    
    39   18   88 1    
    40   19   20 am   BACKBONE|DICT|INTERRES
    41   19   89 1    
    42   20   21 2    
    43   20   22 1    
    44   22   23 1    
    45   22   24 1    
    46   22   90 1    
    47   23   91 1    
    48   23   92 1    
    49   23   93 1    
    50   24   25 am   BACKBONE|DICT|INTERRES
    51   24   94 1    
    52   25   26 2    
    53   25   27 1    
    54   27   28 1    
    55   27   29 1    
    56   27   95 1    
    57   28   96 1    
    58   28   97 1    
    59   28   98 1    
    60   29   30 am   BACKBONE|DICT|INTERRES
    61   29   99 1    
    62   30   31 2    
    63   30   32 1    
    64   32   33 1    
    65   32   34 1    
    66   32  100 1    
    67   33  101 1    
    68   33  102 1    
    69   33  103 1    
    70   34   35 am   BACKBONE|DICT|INTERRES
    71   34  104 1    
    72   35   36 2    
    73   37   38 2    
    74   37   39 am   BACKBONE|DICT|INTERRES
    75   39   40 1    
    76   39  105 1    
    77   40   41 1    
    78   40   42 1    
    79   40  106 1    
    80   41  107 1    
    81   41  108 1    
    82   41  109 1    
    83   42   43 2    
    84   42   44 am   BACKBONE|DICT|INTERRES
    85   44   45 1    
    86   44  110 1    
    87   45   46 1    
    88   45   47 1    
    89   45  111 1    
    90   46  112 1    
    91   46  113 1    
    92   46  114 1    
    93   47   48 2    
    94   47   49 am   BACKBONE|DICT|INTERRES
    95   49   50 1    
    96   49  115 1    
    97   50   51 1    
    98   50   52 1    
    99   50  116 1    
   100   51  117 1    
   101   51  118 1    
   102   51  119 1    
   103   52   53 2    
   104   52   54 am   BACKBONE|DICT|INTERRES
   105   54   55 1    
   106   54  120 1    
   107   55   56 1    
   108   55   57 1    
   109   55  121 1    
   110   56  122 1    
   111   56  123 1    
   112   56  124 1    
   113   57   58 2    
   114   57   59 am   BACKBONE|DICT|INTERRES
   115   59   60 1    
   116   59  125 1    
   117   60   61 1    
   118   60   62 1    
   119   60  126 1    
   120   61  127 1    
   121   61  128 1    
   122   61  129 1    
   123   62   63 2    
   124   62   64 am   BACKBONE|DICT|INTERRES
   125   64   65 1    
   126   64  130 1    
   127   65   66 1    
   128   65   69 1    
   129   65  131 1    
   130   66   67 am   BACKBONE|DICT|INTERRES
   131   66   68 2    
   132   67  132 1    
   133   67  133 1    
   134   69   70 1    
   135   69  134 1    
   136   69  135 1    
   137   70   71 1    
   138   71  136 1    
   139   71  137 1    
@<TRIPOS>SUBSTRUCTURE
     1 UNK         1 GROUP             0       ****    0 ROOT    
