@<TRIPOS>MOLECULE
3R136
137   139    1
SMALL
USER_CHARGES


@<TRIPOS>ATOM
      1 CA         27.3918   20.9090    3.0621 C.3       0 UNK        -0.1979 
      2 C          27.4441   20.4464    1.6136 C.2       0 UNK         0.4864 
      3 O          26.4854   19.8444    1.1284 O.2       0 UNK        -0.5359 
      4 N          28.5570   20.7218    0.9197 N.am      1 UNK        -0.4318 
      5 CA         28.7683   20.4027   -0.4990 C.3       1 UNK         0.0824 
      6 C6         30.2695   20.4887   -0.8871 C.3       12 UNK        -0.0944 
      7 S7         31.0111   22.1413   -0.6177 S.3       12 UNK        -0.2672 
      8 C8         32.0472   21.8701    0.8525 C.3       12 UNK         0.0333 
      9 C9         32.0481   23.1061    1.7378 C.ar      12 UNK        -0.0807 
     10 C10        32.9268   24.1619    1.4837 C.ar      12 UNK        -0.0894 
     11 C11        32.9299   25.3028    2.2944 C.ar      12 UNK        -0.0804 
     12 C12        32.0314   25.3807    3.3683 C.ar      12 UNK        -0.0824 
     13 C13        31.1454   24.3297    3.6297 C.ar      12 UNK        -0.0762 
     14 C14        31.1674   23.1938    2.8169 C.ar      12 UNK        -0.0782 
     15 C15        30.1681   24.3948    4.7940 C.3       12 UNK         0.0230 
     16 S16        28.4497   24.4394    4.1922 S.3       12 UNK        -0.2608 
     17 C17        27.8548   26.0464    4.8139 C.3       12 UNK        -0.0989 
     18 CA         28.5461   27.2859    4.1891 C.3       5 UNK         0.0716 
     19 N          28.6469   27.1965    2.7285 N.am      5 UNK        -0.4135 
     20 C          29.2645   28.0793    1.9319 C.2       4 UNK         0.5031 
     21 O          29.8337   29.0919    2.3386 O.2       4 UNK        -0.5229 
     22 CA         29.1702   27.8401    0.4161 C.3       4 UNK         0.0329 
     23 CB         30.3330   26.9460   -0.0443 C.3       4 UNK        -0.2001 
     24 N          27.9026   27.2611   -0.0500 N.am      4 UNK        -0.4303 
     25 C          26.6544   27.6288    0.2844 C.2       3 UNK         0.5044 
     26 O          26.4006   28.5293    1.0859 O.2       3 UNK        -0.5152 
     27 CA         25.4799   26.8712   -0.3693 C.3       3 UNK         0.0319 
     28 CB         24.6572   27.8266   -1.2499 C.3       3 UNK        -0.2001 
     29 N          25.8658   25.7002   -1.1679 N.am      3 UNK        -0.4354 
     30 C          26.4128   24.5775   -0.6828 C.2       2 UNK         0.4964 
     31 O          26.6413   24.3947    0.5165 O.2       2 UNK        -0.5047 
     32 CA         26.8175   23.5101   -1.7116 C.3       2 UNK         0.0288 
     33 CB         27.6868   24.1021   -2.8443 C.3       2 UNK        -0.2113 
     34 N          27.5603   22.4770   -1.0019 N.am      2 UNK        -0.4145 
     35 C          27.8944   21.2597   -1.4435 C.2       1 UNK         0.5006 
     36 O          27.5579   20.8087   -2.5403 O.2       1 UNK        -0.5103 
     37 C          27.8420   28.5680    4.6889 C.2       5 UNK         0.5055 
     38 O          28.1041   28.9849    5.8173 O.2       5 UNK        -0.5220 
     39 N          26.9648   29.1554    3.8633 N.am      6 UNK        -0.4450 
     40 CA         26.2726   30.4148    4.1346 C.3       6 UNK         0.0367 
     41 CB         24.7556   30.1922    4.0192 C.3       6 UNK        -0.1929 
     42 C          26.7242   31.5171    3.1657 C.2       6 UNK         0.5070 
     43 O          26.8648   32.6646    3.5876 O.2       6 UNK        -0.5237 
     44 N          26.9287   31.1641    1.8878 N.am      7 UNK        -0.4739 
     45 CA         27.2735   32.0953    0.8103 C.3       7 UNK         0.0276 
     46 CB         27.0792   31.3995   -0.5468 C.3       7 UNK        -0.1927 
     47 C          28.6910   32.6802    0.9209 C.2       7 UNK         0.5013 
     48 O          28.8899   33.8308    0.5281 O.2       7 UNK        -0.5193 
     49 N          29.6380   31.8925    1.4459 N.am      8 UNK        -0.4253 
     50 CA         31.0156   32.3103    1.7074 C.3       8 UNK         0.0242 
     51 CB         31.9915   31.4295    0.9105 C.3       8 UNK        -0.2000 
     52 C          31.3106   32.2501    3.2100 C.2       8 UNK         0.4948 
     53 O          31.8348   33.2215    3.7563 O.2       8 UNK        -0.5275 
     54 N          30.9636   31.1231    3.8513 N.am      9 UNK        -0.4246 
     55 CA         31.0423   30.8016    5.2851 C.3       9 UNK         0.0261 
     56 CB         30.1419   31.7377    6.1138 C.3       9 UNK        -0.1959 
     57 C          32.4648   30.7384    5.8705 C.2       9 UNK         0.5033 
     58 O          32.7812   29.7878    6.5855 O.2       9 UNK        -0.5390 
     59 N          33.3002   31.7305    5.5485 N.am      10 UNK        -0.4215 
     60 CA         34.7072   31.8385    5.9417 C.3       10 UNK         0.0240 
     61 CB         35.0990   33.3267    5.9427 C.3       10 UNK        -0.1982 
     62 C          35.6583   31.0202    5.0450 C.2       10 UNK         0.4970 
     63 O          36.8692   31.0605    5.2695 O.2       10 UNK        -0.4916 
     64 N          35.1150   30.3233    4.0383 N.am      11 UNK        -0.4279 
     65 CA         35.8417   29.4551    3.1043 C.3       11 UNK         0.1003 
     66 C          36.5651   28.2530    3.7789 C.2       11 UNK         0.5709 
     67 N          37.5824   27.7038    3.1282 N.am      11 UNK        -0.7358 
     68 O          36.2001   27.7936    4.8597 O.2       11 UNK        -0.4999 
     69 C69        34.9292   29.0145    1.9275 C.3       12 UNK        -0.0954 
     70 S70        33.4316   28.0896    2.4256 S.3       12 UNK        -0.2268 
     71 C71        33.9606   26.3937    2.0119 C.3       12 UNK         0.0203 
     72 H72        26.6819   21.7293    3.1671 H         1 UNK         0.0888 
     73 H73        27.0687   20.0927    3.7076 H         1 UNK         0.0888 
     74 H74        28.3621   21.2535    3.4172 H         1 UNK         0.0888 
     75 H75        29.3096   21.2273    1.3616 H         1 UNK         0.3017 
     76 H76        28.4532   19.3674   -0.6475 H         1 UNK         0.0873 
     77 H77        30.8362   19.7376   -0.3352 H         1 UNK         0.0745 
     78 H78        30.4016   20.2268   -1.9388 H         1 UNK         0.0745 
     79 H79        31.6891   21.0100    1.4199 H         1 UNK         0.0705 
     80 H80        33.0633   21.6274    0.5375 H         1 UNK         0.0705 
     81 H81        33.6168   24.0883    0.6539 H         1 UNK         0.1334 
     82 H82        32.0291   26.2511    4.0095 H         1 UNK         0.1417 
     83 H83        30.4889   22.3801    3.0275 H         1 UNK         0.1562 
     84 H84        30.3767   25.2524    5.4346 H         1 UNK         0.0748 
     85 H85        30.2981   23.5112    5.4205 H         1 UNK         0.0748 
     86 H86        27.9659   26.0567    5.9003 H         1 UNK         0.0940 
     87 H87        26.7795   26.0767    4.6245 H         1 UNK         0.0940 
     88 H88        29.5705   27.3316    4.5630 H         1 UNK         0.0703 
     89 H89        28.2114   26.3888    2.3057 H         1 UNK         0.3081 
     90 H90        29.2771   28.8111   -0.0695 H         1 UNK         0.0719 
     91 H91        30.2685   25.9439    0.3836 H         1 UNK         0.0809 
     92 H92        30.3575   26.8476   -1.1296 H         1 UNK         0.0809 
     93 H93        31.2927   27.3655    0.2614 H         1 UNK         0.0809 
     94 H94        27.9856   26.5048   -0.7121 H         1 UNK         0.2990 
     95 H95        24.8404   26.5226    0.4442 H         1 UNK         0.0690 
     96 H96        23.7720   27.3339   -1.6524 H         1 UNK         0.0788 
     97 H97        25.2421   28.2078   -2.0879 H         1 UNK         0.0788 
     98 H98        24.3108   28.6884   -0.6771 H         1 UNK         0.0788 
     99 H99        25.7178   25.7723   -2.1647 H         1 UNK         0.2993 
    100 H100       25.9077   23.0718   -2.1266 H         1 UNK         0.0949 
    101 H101       27.9996   23.3336   -3.5513 H         1 UNK         0.0767 
    102 H102       27.1448   24.8514   -3.4217 H         1 UNK         0.0767 
    103 H103       28.5892   24.5739   -2.4526 H         1 UNK         0.0767 
    104 H104       27.8198   22.7443   -0.0600 H         1 UNK         0.3013 
    105 H105       26.8134   28.7505    2.9435 H         1 UNK         0.3121 
    106 H106       26.4881   30.7625    5.1473 H         1 UNK         0.0774 
    107 H107       24.4721   29.8405    3.0261 H         1 UNK         0.0815 
    108 H108       24.2096   31.1175    4.2076 H         1 UNK         0.0815 
    109 H109       24.4087   29.4574    4.7457 H         1 UNK         0.0815 
    110 H110       26.7500   30.2015    1.6085 H         1 UNK         0.2987 
    111 H111       26.5742   32.9329    0.8619 H         1 UNK         0.0949 
    112 H112       27.7479   30.5473   -0.6648 H         1 UNK         0.0806 
    113 H113       26.0566   31.0407   -0.6664 H         1 UNK         0.0806 
    114 H114       27.2795   32.0870   -1.3698 H         1 UNK         0.0806 
    115 H115       29.3828   30.9612    1.7562 H         1 UNK         0.3010 
    116 H116       31.1694   33.3447    1.3923 H         1 UNK         0.0829 
    117 H117       31.8939   30.3741    1.1641 H         1 UNK         0.0813 
    118 H118       31.8234   31.5286   -0.1618 H         1 UNK         0.0813 
    119 H119       33.0239   31.7221    1.1044 H         1 UNK         0.0813 
    120 H120       30.5928   30.3627    3.2798 H         1 UNK         0.3038 
    121 H121       30.6350   29.7939    5.3729 H         1 UNK         0.0769 
    122 H122       30.1218   31.4305    7.1601 H         1 UNK         0.0811 
    123 H123       30.4865   32.7717    6.0839 H         1 UNK         0.0811 
    124 H124       29.1138   31.7164    5.7516 H         1 UNK         0.0811 
    125 H125       32.9284   32.4596    4.9386 H         1 UNK         0.3204 
    126 H126       34.8172   31.4560    6.9585 H         1 UNK         0.0748 
    127 H127       36.1270   33.4645    6.2808 H         1 UNK         0.0771 
    128 H128       35.0205   33.7639    4.9464 H         1 UNK         0.0771 
    129 H129       34.4611   33.9036    6.6128 H         1 UNK         0.0771 
    130 H130       34.1108   30.3094    3.9538 H         1 UNK         0.2980 
    131 H131       36.6299   30.0789    2.6782 H         1 UNK         0.0545 
    132 H132       37.8906   28.0638    2.2385 H         1 UNK         0.3459 
    133 H133       38.0591   26.9178    3.5416 H         1 UNK         0.3459 
    134 H134       34.5985   29.8983    1.3817 H         1 UNK         0.0616 
    135 H135       35.4979   28.4322    1.2006 H         1 UNK         0.0616 
    136 H136       34.8657   26.1564    2.5712 H         1 UNK         0.0634 
    137 H137       34.2320   26.3760    0.9551 H         1 UNK         0.0634 
@<TRIPOS>BOND
     1    1    2 1    
     2    1   72 1    
     3    1   73 1    
     4    1   74 1    
     5    2    3 2    
     6    2    4 am   BACKBONE|DICT|INTERRES
     7    4    5 1    
     8    4   75 1    
     9    5    6 1    
    10    5   35 1    
    11    5   76 1    
    12    6    7 1    
    13    6   77 1    
    14    6   78 1    
    15    7    8 1    
    16    8    9 1    
    17    8   79 1    
    18    8   80 1    
    19    9   10 ar   
    20    9   14 ar   
    21   10   11 ar   
    22   10   81 1    
    23   11   12 ar   
    24   11   71 1    
    25   12   13 ar   
    26   12   82 1    
    27   13   14 ar   
    28   13   15 1    
    29   14   83 1    
    30   15   16 1    
    31   15   84 1    
    32   15   85 1    
    33   16   17 1    
    34   17   18 1    
    35   17   86 1    
    36   17   87 1    
    37   18   19 1    
    38   18   37 1    
    39   18   88 1    
    40   19   20 am   BACKBONE|DICT|INTERRES
    41   19   89 1    
    42   20   21 2    
    43   20   22 1    
    44   22   23 1    
    45   22   24 1    
    46   22   90 1    
    47   23   91 1    
    48   23   92 1    
    49   23   93 1    
    50   24   25 am   BACKBONE|DICT|INTERRES
    51   24   94 1    
    52   25   26 2    
    53   25   27 1    
    54   27   28 1    
    55   27   29 1    
    56   27   95 1    
    57   28   96 1    
    58   28   97 1    
    59   28   98 1    
    60   29   30 am   BACKBONE|DICT|INTERRES
    61   29   99 1    
    62   30   31 2    
    63   30   32 1    
    64   32   33 1    
    65   32   34 1    
    66   32  100 1    
    67   33  101 1    
    68   33  102 1    
    69   33  103 1    
    70   34   35 am   BACKBONE|DICT|INTERRES
    71   34  104 1    
    72   35   36 2    
    73   37   38 2    
    74   37   39 am   BACKBONE|DICT|INTERRES
    75   39   40 1    
    76   39  105 1    
    77   40   41 1    
    78   40   42 1    
    79   40  106 1    
    80   41  107 1    
    81   41  108 1    
    82   41  109 1    
    83   42   43 2    
    84   42   44 am   BACKBONE|DICT|INTERRES
    85   44   45 1    
    86   44  110 1    
    87   45   46 1    
    88   45   47 1    
    89   45  111 1    
    90   46  112 1    
    91   46  113 1    
    92   46  114 1    
    93   47   48 2    
    94   47   49 am   BACKBONE|DICT|INTERRES
    95   49   50 1    
    96   49  115 1    
    97   50   51 1    
    98   50   52 1    
    99   50  116 1    
   100   51  117 1    
   101   51  118 1    
   102   51  119 1    
   103   52   53 2    
   104   52   54 am   BACKBONE|DICT|INTERRES
   105   54   55 1    
   106   54  120 1    
   107   55   56 1    
   108   55   57 1    
   109   55  121 1    
   110   56  122 1    
   111   56  123 1    
   112   56  124 1    
   113   57   58 2    
   114   57   59 am   BACKBONE|DICT|INTERRES
   115   59   60 1    
   116   59  125 1    
   117   60   61 1    
   118   60   62 1    
   119   60  126 1    
   120   61  127 1    
   121   61  128 1    
   122   61  129 1    
   123   62   63 2    
   124   62   64 am   BACKBONE|DICT|INTERRES
   125   64   65 1    
   126   64  130 1    
   127   65   66 1    
   128   65   69 1    
   129   65  131 1    
   130   66   67 am   BACKBONE|DICT|INTERRES
   131   66   68 2    
   132   67  132 1    
   133   67  133 1    
   134   69   70 1    
   135   69  134 1    
   136   69  135 1    
   137   70   71 1    
   138   71  136 1    
   139   71  137 1    
@<TRIPOS>SUBSTRUCTURE
     1 UNK         1 GROUP             0       ****    0 ROOT    
