@<TRIPOS>MOLECULE
3R136
137   139    1
SMALL
USER_CHARGES


@<TRIPOS>ATOM
      1 CA         25.8953   25.3475    5.8709 C.3       0 UNK        -0.1979 
      2 C          26.4344   24.2908    4.9191 C.2       0 UNK         0.4864 
      3 O          25.8636   23.2030    4.8283 O.2       0 UNK        -0.5359 
      4 N          27.5339   24.6050    4.2207 N.am      1 UNK        -0.4318 
      5 CA         28.1991   23.7379    3.2453 C.3       1 UNK         0.0824 
      6 C6         29.5554   24.3040    2.7604 C.3       12 UNK        -0.0944 
      7 S7         30.7867   24.5325    4.0851 S.3       12 UNK        -0.2672 
      8 C8         32.3143   23.9522    3.2733 C.3       12 UNK         0.0333 
      9 C9         32.6921   24.8111    2.0715 C.ar      12 UNK        -0.0807 
     10 C10        33.4546   25.9705    2.2402 C.ar      12 UNK        -0.0894 
     11 C11        33.7992   26.7636    1.1387 C.ar      12 UNK        -0.0804 
     12 C12        33.3573   26.3968   -0.1380 C.ar      12 UNK        -0.0824 
     13 C13        32.5915   25.2414   -0.3183 C.ar      12 UNK        -0.0762 
     14 C14        32.2813   24.4448    0.7862 C.ar      12 UNK        -0.0782 
     15 C15        32.0947   24.8377   -1.6988 C.3       12 UNK         0.0230 
     16 S16        30.4325   25.5065   -2.0374 S.3       12 UNK        -0.2608 
     17 C17        30.8263   27.0100   -2.9974 C.3       12 UNK        -0.0989 
     18 CA         29.9158   28.2319   -2.7163 C.3       5 UNK         0.0716 
     19 N          28.4875   27.9533   -2.9050 N.am      5 UNK        -0.4135 
     20 C          27.5905   28.8813   -3.2720 C.2       4 UNK         0.5031 
     21 O          27.8788   30.0500   -3.5337 O.2       4 UNK        -0.5229 
     22 CA         26.1213   28.4348   -3.3593 C.3       4 UNK         0.0329 
     23 CB         25.9312   27.3007   -4.3822 C.3       4 UNK        -0.2001 
     24 N          25.5886   28.0209   -2.0617 N.am      4 UNK        -0.4303 
     25 C          25.4152   28.8098   -0.9922 C.2       3 UNK         0.5044 
     26 O          25.6369   30.0204   -0.9911 O.2       3 UNK        -0.5152 
     27 CA         24.9395   28.1413    0.3121 C.3       3 UNK         0.0319 
     28 CB         23.4057   28.1901    0.4540 C.3       3 UNK        -0.2001 
     29 N          25.4809   26.7883    0.5129 N.am      3 UNK        -0.4354 
     30 C          25.1801   25.6557   -0.1408 C.2       2 UNK         0.4964 
     31 O          24.3063   25.5860   -1.0048 O.2       2 UNK        -0.5047 
     32 CA         26.0312   24.4078    0.1347 C.3       2 UNK         0.0288 
     33 CB         26.9203   24.0946   -1.0849 C.3       2 UNK        -0.2113 
     34 N          26.8632   24.5083    1.3385 N.am      2 UNK        -0.4145 
     35 C          27.2910   23.4462    2.0358 C.2       1 UNK         0.5006 
     36 O          27.0071   22.2789    1.7578 O.2       1 UNK        -0.5103 
     37 C          30.1987   28.8797   -1.3477 C.2       5 UNK         0.5055 
     38 O          31.0227   29.7936   -1.2800 O.2       5 UNK        -0.5220 
     39 N          29.5035   28.4268   -0.2961 N.am      6 UNK        -0.4450 
     40 CA         29.6010   28.9567    1.0585 C.3       6 UNK         0.0367 
     41 CB         30.9220   28.5254    1.7153 C.3       6 UNK        -0.1929 
     42 C          28.4298   28.4517    1.8984 C.2       6 UNK         0.5070 
     43 O          27.9308   27.3450    1.6654 O.2       6 UNK        -0.5237 
     44 N          28.0551   29.2642    2.8919 N.am      7 UNK        -0.4739 
     45 CA         27.1531   28.9016    3.9806 C.3       7 UNK         0.0276 
     46 CB         26.3985   30.1594    4.4553 C.3       7 UNK        -0.1927 
     47 C          27.9673   28.1965    5.0803 C.2       7 UNK         0.5013 
     48 O          28.5053   27.1206    4.8219 O.2       7 UNK        -0.5193 
     49 N          28.0660   28.7839    6.2790 N.am      8 UNK        -0.4253 
     50 CA         28.7525   28.2194    7.4477 C.3       8 UNK         0.0242 
     51 CB         28.2198   28.9167    8.7143 C.3       8 UNK        -0.2000 
     52 C          30.2943   28.2669    7.3457 C.2       8 UNK         0.4948 
     53 O          30.9432   28.8654    8.2053 O.2       8 UNK        -0.5275 
     54 N          30.8437   27.6280    6.3010 N.am      9 UNK        -0.4246 
     55 CA         32.2698   27.4347    6.0013 C.3       9 UNK         0.0261 
     56 CB         32.8830   26.4001    6.9670 C.3       9 UNK        -0.1959 
     57 C          33.0686   28.7514    5.9489 C.2       9 UNK         0.5033 
     58 O          34.1073   28.8769    6.6006 O.2       9 UNK        -0.5390 
     59 N          32.5552   29.7123    5.1678 N.am      10 UNK        -0.4215 
     60 CA         33.0394   31.0943    5.0477 C.3       10 UNK         0.0240 
     61 CB         32.1652   31.8368    4.0229 C.3       10 UNK        -0.1982 
     62 C          34.5315   31.2622    4.6962 C.2       10 UNK         0.4970 
     63 O          35.1244   32.2693    5.0849 O.2       10 UNK        -0.4916 
     64 N          35.1069   30.2890    3.9802 N.am      11 UNK        -0.4279 
     65 CA         36.5393   30.2200    3.6535 C.3       11 UNK         0.1003 
     66 C          37.4444   29.6791    4.8008 C.2       11 UNK         0.5709 
     67 N          36.9076   29.2123    5.9227 N.am      11 UNK        -0.7358 
     68 O          38.6669   29.7031    4.6776 O.2       11 UNK        -0.4999 
     69 C69        36.7858   29.4975    2.3010 C.3       12 UNK        -0.0954 
     70 S70        36.1530   27.7854    2.2340 S.3       12 UNK        -0.2268 
     71 C71        34.5964   28.0476    1.3280 C.3       12 UNK         0.0203 
     72 H72        25.1207   24.9302    6.5140 H         1 UNK         0.0888 
     73 H73        25.4629   26.1770    5.3124 H         1 UNK         0.0888 
     74 H74        26.6895   25.7315    6.5099 H         1 UNK         0.0888 
     75 H75        27.9720   25.5152    4.3678 H         1 UNK         0.3017 
     76 H76        28.3930   22.7846    3.7418 H         1 UNK         0.0873 
     77 H77        29.9682   23.6196    2.0206 H         1 UNK         0.0745 
     78 H78        29.4316   25.2632    2.2557 H         1 UNK         0.0745 
     79 H79        32.1928   22.9097    2.9750 H         1 UNK         0.0705 
     80 H80        33.1248   23.9656    4.0035 H         1 UNK         0.0705 
     81 H81        33.7793   26.2574    3.2304 H         1 UNK         0.1334 
     82 H82        33.5988   27.0157   -0.9910 H         1 UNK         0.1417 
     83 H83        31.7048   23.5425    0.6395 H         1 UNK         0.1562 
     84 H84        32.0479   23.7497   -1.7662 H         1 UNK         0.0748 
     85 H85        32.8002   25.1504   -2.4700 H         1 UNK         0.0748 
     86 H86        30.7557   26.7479   -4.0542 H         1 UNK         0.0940 
     87 H87        31.8705   27.2866   -2.8402 H         1 UNK         0.0940 
     88 H88        30.1992   28.9818   -3.4589 H         1 UNK         0.0703 
     89 H89        28.1842   27.0081   -2.7245 H         1 UNK         0.3081 
     90 H90        25.5367   29.2925   -3.6988 H         1 UNK         0.0719 
     91 H91        26.4163   26.3756   -4.0689 H         1 UNK         0.0809 
     92 H92        24.8738   27.0837   -4.5355 H         1 UNK         0.0809 
     93 H93        26.3464   27.5763   -5.3528 H         1 UNK         0.0809 
     94 H94        25.3044   27.0523   -1.9646 H         1 UNK         0.2990 
     95 H95        25.3542   28.7364    1.1275 H         1 UNK         0.0690 
     96 H96        23.0796   27.7379    1.3905 H         1 UNK         0.0788 
     97 H97        22.8990   27.6761   -0.3630 H         1 UNK         0.0788 
     98 H98        23.0516   29.2217    0.4510 H         1 UNK         0.0788 
     99 H99        26.2977   26.7873    1.1174 H         1 UNK         0.2993 
    100 H100       25.3220   23.5877    0.2681 H         1 UNK         0.0949 
    101 H101       27.6512   24.8844   -1.2543 H         1 UNK         0.0767 
    102 H102       27.4639   23.1585   -0.9562 H         1 UNK         0.0767 
    103 H103       26.3260   23.9965   -1.9945 H         1 UNK         0.0767 
    104 H104       27.1810   25.4293    1.6203 H         1 UNK         0.3013 
    105 H105       28.8480   27.6653   -0.4070 H         1 UNK         0.3121 
    106 H106       29.5545   30.0468    1.0089 H         1 UNK         0.0774 
    107 H107       30.9912   28.8823    2.7420 H         1 UNK         0.0815 
    108 H108       31.0125   27.4386    1.7404 H         1 UNK         0.0815 
    109 H109       31.7774   28.9255    1.1744 H         1 UNK         0.0815 
    110 H110       28.5355   30.1467    2.9932 H         1 UNK         0.2987 
    111 H111       26.4151   28.1817    3.6195 H         1 UNK         0.0949 
    112 H112       27.0732   30.9420    4.8047 H         1 UNK         0.0806 
    113 H113       25.8029   30.5811    3.6451 H         1 UNK         0.0806 
    114 H114       25.7057   29.9243    5.2647 H         1 UNK         0.0806 
    115 H115       27.6287   29.6846    6.4088 H         1 UNK         0.3010 
    116 H116       28.4830   27.1638    7.5232 H         1 UNK         0.0829 
    117 H117       27.1400   28.7995    8.8084 H         1 UNK         0.0813 
    118 H118       28.6673   28.4909    9.6135 H         1 UNK         0.0813 
    119 H119       28.4439   29.9841    8.7124 H         1 UNK         0.0813 
    120 H120       30.1915   27.2025    5.6441 H         1 UNK         0.3038 
    121 H121       32.3152   27.0124    4.9972 H         1 UNK         0.0769 
    122 H122       32.8797   26.7584    7.9970 H         1 UNK         0.0811 
    123 H123       33.9176   26.1805    6.7003 H         1 UNK         0.0811 
    124 H124       32.3350   25.4583    6.9361 H         1 UNK         0.0811 
    125 H125       31.6850   29.5076    4.7017 H         1 UNK         0.3204 
    126 H126       32.8923   31.5629    6.0229 H         1 UNK         0.0748 
    127 H127       32.4759   32.8782    3.9251 H         1 UNK         0.0771 
    128 H128       32.2306   31.3839    3.0325 H         1 UNK         0.0771 
    129 H129       31.1170   31.8434    4.3228 H         1 UNK         0.0771 
    130 H130       34.5611   29.4778    3.7374 H         1 UNK         0.2980 
    131 H131       36.8808   31.2461    3.5042 H         1 UNK         0.0545 
    132 H132       35.9007   29.1811    6.0590 H         1 UNK         0.3459 
    133 H133       37.5166   28.8765    6.6511 H         1 UNK         0.3459 
    134 H134       37.8521   29.4734    2.0696 H         1 UNK         0.0616 
    135 H135       36.3336   30.0765    1.4945 H         1 UNK         0.0616 
    136 H136       33.9842   28.7660    1.8717 H         1 UNK         0.0634 
    137 H137       34.8261   28.5018    0.3627 H         1 UNK         0.0634 
@<TRIPOS>BOND
     1    1    2 1    
     2    1   72 1    
     3    1   73 1    
     4    1   74 1    
     5    2    3 2    
     6    2    4 am   BACKBONE|DICT|INTERRES
     7    4    5 1    
     8    4   75 1    
     9    5    6 1    
    10    5   35 1    
    11    5   76 1    
    12    6    7 1    
    13    6   77 1    
    14    6   78 1    
    15    7    8 1    
    16    8    9 1    
    17    8   79 1    
    18    8   80 1    
    19    9   10 ar   
    20    9   14 ar   
    21   10   11 ar   
    22   10   81 1    
    23   11   12 ar   
    24   11   71 1    
    25   12   13 ar   
    26   12   82 1    
    27   13   14 ar   
    28   13   15 1    
    29   14   83 1    
    30   15   16 1    
    31   15   84 1    
    32   15   85 1    
    33   16   17 1    
    34   17   18 1    
    35   17   86 1    
    36   17   87 1    
    37   18   19 1    
    38   18   37 1    
    39   18   88 1    
    40   19   20 am   BACKBONE|DICT|INTERRES
    41   19   89 1    
    42   20   21 2    
    43   20   22 1    
    44   22   23 1    
    45   22   24 1    
    46   22   90 1    
    47   23   91 1    
    48   23   92 1    
    49   23   93 1    
    50   24   25 am   BACKBONE|DICT|INTERRES
    51   24   94 1    
    52   25   26 2    
    53   25   27 1    
    54   27   28 1    
    55   27   29 1    
    56   27   95 1    
    57   28   96 1    
    58   28   97 1    
    59   28   98 1    
    60   29   30 am   BACKBONE|DICT|INTERRES
    61   29   99 1    
    62   30   31 2    
    63   30   32 1    
    64   32   33 1    
    65   32   34 1    
    66   32  100 1    
    67   33  101 1    
    68   33  102 1    
    69   33  103 1    
    70   34   35 am   BACKBONE|DICT|INTERRES
    71   34  104 1    
    72   35   36 2    
    73   37   38 2    
    74   37   39 am   BACKBONE|DICT|INTERRES
    75   39   40 1    
    76   39  105 1    
    77   40   41 1    
    78   40   42 1    
    79   40  106 1    
    80   41  107 1    
    81   41  108 1    
    82   41  109 1    
    83   42   43 2    
    84   42   44 am   BACKBONE|DICT|INTERRES
    85   44   45 1    
    86   44  110 1    
    87   45   46 1    
    88   45   47 1    
    89   45  111 1    
    90   46  112 1    
    91   46  113 1    
    92   46  114 1    
    93   47   48 2    
    94   47   49 am   BACKBONE|DICT|INTERRES
    95   49   50 1    
    96   49  115 1    
    97   50   51 1    
    98   50   52 1    
    99   50  116 1    
   100   51  117 1    
   101   51  118 1    
   102   51  119 1    
   103   52   53 2    
   104   52   54 am   BACKBONE|DICT|INTERRES
   105   54   55 1    
   106   54  120 1    
   107   55   56 1    
   108   55   57 1    
   109   55  121 1    
   110   56  122 1    
   111   56  123 1    
   112   56  124 1    
   113   57   58 2    
   114   57   59 am   BACKBONE|DICT|INTERRES
   115   59   60 1    
   116   59  125 1    
   117   60   61 1    
   118   60   62 1    
   119   60  126 1    
   120   61  127 1    
   121   61  128 1    
   122   61  129 1    
   123   62   63 2    
   124   62   64 am   BACKBONE|DICT|INTERRES
   125   64   65 1    
   126   64  130 1    
   127   65   66 1    
   128   65   69 1    
   129   65  131 1    
   130   66   67 am   BACKBONE|DICT|INTERRES
   131   66   68 2    
   132   67  132 1    
   133   67  133 1    
   134   69   70 1    
   135   69  134 1    
   136   69  135 1    
   137   70   71 1    
   138   71  136 1    
   139   71  137 1    
@<TRIPOS>SUBSTRUCTURE
     1 UNK         1 GROUP             0       ****    0 ROOT    
