@<TRIPOS>MOLECULE
3R136
137   139    1
SMALL
USER_CHARGES


@<TRIPOS>ATOM
      1 CA         29.7726   18.3317   -1.9012 C.3       0 UNK        -0.1979 
      2 C          29.2695   19.7679   -1.8870 C.2       0 UNK         0.4864 
      3 O          28.7348   20.2382   -2.8928 O.2       0 UNK        -0.5359 
      4 N          29.4447   20.4688   -0.7596 N.am      1 UNK        -0.4318 
      5 CA         28.9844   21.8444   -0.5460 C.3       1 UNK         0.0824 
      6 C6         29.6066   22.4636    0.7296 C.3       12 UNK        -0.0944 
      7 S7         31.3937   22.7635    0.5299 S.3       12 UNK        -0.2672 
      8 C8         31.4836   24.5743    0.7002 C.3       12 UNK         0.0333 
      9 C9         31.6149   24.9945    2.1576 C.ar      12 UNK        -0.0807 
     10 C10        32.8836   25.1712    2.7147 C.ar      12 UNK        -0.0894 
     11 C11        33.0266   25.5735    4.0443 C.ar      12 UNK        -0.0804 
     12 C12        31.8852   25.8191    4.8130 C.ar      12 UNK        -0.0824 
     13 C13        30.6051   25.6529    4.2731 C.ar      12 UNK        -0.0762 
     14 C14        30.4817   25.2166    2.9469 C.ar      12 UNK        -0.0782 
     15 C15        29.3949   25.9310    5.1706 C.3       12 UNK         0.0230 
     16 S16        27.8169   26.2891    4.3151 S.3       12 UNK        -0.2608 
     17 C17        28.2223   27.8060    3.3862 C.3       12 UNK        -0.0989 
     18 CA         27.9344   27.6305    1.8722 C.3       5 UNK         0.0716 
     19 N          26.5051   27.5304    1.5583 N.am      5 UNK        -0.4135 
     20 C          25.5828   28.5045    1.6387 C.2       4 UNK         0.5031 
     21 O          25.8221   29.6568    2.0006 O.2       4 UNK        -0.5229 
     22 CA         24.1356   28.1484    1.2418 C.3       4 UNK         0.0329 
     23 CB         23.8409   28.6346   -0.1871 C.3       4 UNK        -0.2001 
     24 N          23.8381   26.7177    1.3269 N.am      4 UNK        -0.4303 
     25 C          23.7582   26.0131    2.4646 C.2       3 UNK         0.5044 
     26 O          23.7983   26.5201    3.5859 O.2       3 UNK        -0.5152 
     27 CA         23.6305   24.4814    2.3356 C.3       3 UNK         0.0319 
     28 CB         22.1885   24.0371    2.6317 C.3       3 UNK        -0.2001 
     29 N          24.0447   23.9283    1.0374 N.am      3 UNK        -0.4354 
     30 C          25.2703   24.0264    0.5037 C.2       2 UNK         0.4964 
     31 O          26.1938   24.6692    1.0110 O.2       2 UNK        -0.5047 
     32 CA         25.4754   23.3572   -0.8639 C.3       2 UNK         0.0288 
     33 CB         25.0735   24.3219   -1.9926 C.3       2 UNK        -0.2113 
     34 N          26.8774   22.9802   -1.0376 N.am      2 UNK        -0.4145 
     35 C          27.4475   21.9131   -0.4638 C.2       1 UNK         0.5006 
     36 O          26.8231   21.0435    0.1514 O.2       1 UNK        -0.5103 
     37 C          28.6396   28.6860    1.0002 C.2       5 UNK         0.5055 
     38 O          29.0713   29.7275    1.4997 O.2       5 UNK        -0.5220 
     39 N          28.7506   28.3807   -0.3002 N.am      6 UNK        -0.4450 
     40 CA         29.4835   29.1626   -1.2987 C.3       6 UNK         0.0367 
     41 CB         29.0083   28.7457   -2.7031 C.3       6 UNK        -0.1929 
     42 C          31.0095   29.0155   -1.1213 C.2       6 UNK         0.5070 
     43 O          31.6795   28.4020   -1.9535 O.2       6 UNK        -0.5237 
     44 N          31.5199   29.5654   -0.0184 N.am      7 UNK        -0.4739 
     45 CA         32.9250   29.6121    0.3702 C.3       7 UNK         0.0276 
     46 CB         33.2145   28.4638    1.3524 C.3       7 UNK        -0.1927 
     47 C          33.2028   30.9757    1.0144 C.2       7 UNK         0.5013 
     48 O          32.2567   31.6671    1.4065 O.2       7 UNK        -0.5193 
     49 N          34.4903   31.3338    1.1236 N.am      8 UNK        -0.4253 
     50 CA         34.9887   32.5910    1.6952 C.3       8 UNK         0.0242 
     51 CB         36.5268   32.5853    1.6678 C.3       8 UNK        -0.2000 
     52 C          34.4624   32.8262    3.1212 C.2       8 UNK         0.4948 
     53 O          34.8691   32.1147    4.0421 O.2       8 UNK        -0.5275 
     54 N          33.5089   33.7622    3.2495 N.am      9 UNK        -0.4246 
     55 CA         32.7387   34.0872    4.4592 C.3       9 UNK         0.0261 
     56 CB         33.6386   34.8062    5.4871 C.3       9 UNK        -0.1959 
     57 C          32.0037   32.8726    5.0694 C.2       9 UNK         0.5033 
     58 O          31.8467   32.8107    6.2907 O.2       9 UNK        -0.5390 
     59 N          31.6225   31.8995    4.2228 N.am      10 UNK        -0.4215 
     60 CA         31.0798   30.5793    4.5783 C.3       10 UNK         0.0240 
     61 CB         29.6489   30.7176    5.1423 C.3       10 UNK        -0.1982 
     62 C          32.0079   29.7600    5.5049 C.2       10 UNK         0.4970 
     63 O          31.5189   28.9292    6.2719 O.2       10 UNK        -0.4916 
     64 N          33.3201   30.0338    5.4403 N.am      11 UNK        -0.4279 
     65 CA         34.3638   29.5391    6.3513 C.3       11 UNK         0.1003 
     66 C          34.2401   30.0635    7.8163 C.2       11 UNK         0.5709 
     67 N          33.4669   31.1082    8.0933 N.am      11 UNK        -0.7358 
     68 O          34.8843   29.5382    8.7218 O.2       11 UNK        -0.4999 
     69 C69        34.5779   28.0009    6.2738 C.3       12 UNK        -0.0954 
     70 S70        35.0114   27.4311    4.5964 S.3       12 UNK        -0.2268 
     71 C71        34.4168   25.7135    4.6469 C.3       12 UNK         0.0203 
     72 H72        30.5131   18.2012   -2.6898 H         1 UNK         0.0888 
     73 H73        30.2335   18.0519   -0.9540 H         1 UNK         0.0888 
     74 H74        28.9466   17.6469   -2.0915 H         1 UNK         0.0888 
     75 H75        29.8828   20.0289    0.0367 H         1 UNK         0.3017 
     76 H76        29.3014   22.4354   -1.4086 H         1 UNK         0.0873 
     77 H77        29.4545   21.8131    1.5931 H         1 UNK         0.0745 
     78 H78        29.1120   23.4040    0.9770 H         1 UNK         0.0745 
     79 H79        30.6148   25.0468    0.2394 H         1 UNK         0.0705 
     80 H80        32.3470   24.9313    0.1364 H         1 UNK         0.0705 
     81 H81        33.7632   24.9886    2.1124 H         1 UNK         0.1334 
     82 H82        31.9921   26.1376    5.8406 H         1 UNK         0.1417 
     83 H83        29.5035   25.0454    2.5261 H         1 UNK         0.1562 
     84 H84        29.6162   26.7724    5.8300 H         1 UNK         0.0748 
     85 H85        29.2434   25.0660    5.8174 H         1 UNK         0.0748 
     86 H86        29.2746   28.0443    3.5522 H         1 UNK         0.0940 
     87 H87        27.6551   28.6424    3.7973 H         1 UNK         0.0940 
     88 H88        28.3612   26.6774    1.5623 H         1 UNK         0.0703 
     89 H89        26.2007   26.5997    1.2881 H         1 UNK         0.3081 
     90 H90        23.4686   28.6743    1.9284 H         1 UNK         0.0719 
     91 H91        24.4702   28.1330   -0.9236 H         1 UNK         0.0809 
     92 H92        22.7996   28.4612   -0.4594 H         1 UNK         0.0809 
     93 H93        24.0231   29.7063   -0.2797 H         1 UNK         0.0809 
     94 H94        23.7681   26.2143    0.4551 H         1 UNK         0.2990 
     95 H95        24.2841   24.0468    3.0949 H         1 UNK         0.0690 
     96 H96        22.1030   22.9505    2.6521 H         1 UNK         0.0788 
     97 H97        21.4883   24.4171    1.8866 H         1 UNK         0.0788 
     98 H98        21.8583   24.4028    3.6052 H         1 UNK         0.0788 
     99 H99        23.3414   23.4054    0.5343 H         1 UNK         0.2993 
    100 H100       24.8547   22.4599   -0.9217 H         1 UNK         0.0949 
    101 H101       25.2194   23.8663   -2.9724 H         1 UNK         0.0767 
    102 H102       24.0200   24.5953   -1.9199 H         1 UNK         0.0767 
    103 H103       25.6533   25.2457   -1.9635 H         1 UNK         0.0767 
    104 H104       27.4672   23.6604   -1.4938 H         1 UNK         0.3013 
    105 H105       28.3682   27.5030   -0.6201 H         1 UNK         0.3121 
    106 H106       29.2378   30.2185   -1.1643 H         1 UNK         0.0774 
    107 H107       29.5212   29.3222   -3.4742 H         1 UNK         0.0815 
    108 H108       29.2033   27.6910   -2.9018 H         1 UNK         0.0815 
    109 H109       27.9395   28.9197   -2.8287 H         1 UNK         0.0815 
    110 H110       30.8879   30.0562    0.6098 H         1 UNK         0.2987 
    111 H111       33.5592   29.5133   -0.5136 H         1 UNK         0.0949 
    112 H112       34.2571   28.4666    1.6720 H         1 UNK         0.0806 
    113 H113       32.5984   28.5293    2.2503 H         1 UNK         0.0806 
    114 H114       33.0231   27.4961    0.8894 H         1 UNK         0.0806 
    115 H115       35.1951   30.6868    0.8007 H         1 UNK         0.3010 
    116 H116       34.6438   33.4045    1.0536 H         1 UNK         0.0829 
    117 H117       36.9073   32.5027    0.6495 H         1 UNK         0.0813 
    118 H118       36.9273   33.5090    2.0879 H         1 UNK         0.0813 
    119 H119       36.9387   31.7590    2.2490 H         1 UNK         0.0813 
    120 H120       33.2156   34.2479    2.4124 H         1 UNK         0.3038 
    121 H121       31.9599   34.7864    4.1513 H         1 UNK         0.0769 
    122 H122       33.0550   35.1719    6.3329 H         1 UNK         0.0811 
    123 H123       34.1378   35.6680    5.0444 H         1 UNK         0.0811 
    124 H124       34.4062   34.1413    5.8851 H         1 UNK         0.0811 
    125 H125       31.8167   32.0265    3.2306 H         1 UNK         0.3204 
    126 H126       31.0146   30.0153    3.6468 H         1 UNK         0.0748 
    127 H127       29.2135   29.7437    5.3656 H         1 UNK         0.0771 
    128 H128       29.6310   31.2948    6.0669 H         1 UNK         0.0771 
    129 H129       28.9900   31.2074    4.4251 H         1 UNK         0.0771 
    130 H130       33.6408   30.7565    4.8038 H         1 UNK         0.2980 
    131 H131       35.2829   30.0006    5.9891 H         1 UNK         0.0545 
    132 H132       33.4125   31.4356    9.0441 H         1 UNK         0.3459 
    133 H133       32.9301   31.5779    7.3705 H         1 UNK         0.3459 
    134 H134       35.3940   27.6938    6.9299 H         1 UNK         0.0616 
    135 H135       33.6926   27.4755    6.6301 H         1 UNK         0.0616 
    136 H136       34.4247   25.3397    5.6719 H         1 UNK         0.0634 
    137 H137       35.1237   25.0901    4.0974 H         1 UNK         0.0634 
@<TRIPOS>BOND
     1    1    2 1    
     2    1   72 1    
     3    1   73 1    
     4    1   74 1    
     5    2    3 2    
     6    2    4 am   BACKBONE|DICT|INTERRES
     7    4    5 1    
     8    4   75 1    
     9    5    6 1    
    10    5   35 1    
    11    5   76 1    
    12    6    7 1    
    13    6   77 1    
    14    6   78 1    
    15    7    8 1    
    16    8    9 1    
    17    8   79 1    
    18    8   80 1    
    19    9   10 ar   
    20    9   14 ar   
    21   10   11 ar   
    22   10   81 1    
    23   11   12 ar   
    24   11   71 1    
    25   12   13 ar   
    26   12   82 1    
    27   13   14 ar   
    28   13   15 1    
    29   14   83 1    
    30   15   16 1    
    31   15   84 1    
    32   15   85 1    
    33   16   17 1    
    34   17   18 1    
    35   17   86 1    
    36   17   87 1    
    37   18   19 1    
    38   18   37 1    
    39   18   88 1    
    40   19   20 am   BACKBONE|DICT|INTERRES
    41   19   89 1    
    42   20   21 2    
    43   20   22 1    
    44   22   23 1    
    45   22   24 1    
    46   22   90 1    
    47   23   91 1    
    48   23   92 1    
    49   23   93 1    
    50   24   25 am   BACKBONE|DICT|INTERRES
    51   24   94 1    
    52   25   26 2    
    53   25   27 1    
    54   27   28 1    
    55   27   29 1    
    56   27   95 1    
    57   28   96 1    
    58   28   97 1    
    59   28   98 1    
    60   29   30 am   BACKBONE|DICT|INTERRES
    61   29   99 1    
    62   30   31 2    
    63   30   32 1    
    64   32   33 1    
    65   32   34 1    
    66   32  100 1    
    67   33  101 1    
    68   33  102 1    
    69   33  103 1    
    70   34   35 am   BACKBONE|DICT|INTERRES
    71   34  104 1    
    72   35   36 2    
    73   37   38 2    
    74   37   39 am   BACKBONE|DICT|INTERRES
    75   39   40 1    
    76   39  105 1    
    77   40   41 1    
    78   40   42 1    
    79   40  106 1    
    80   41  107 1    
    81   41  108 1    
    82   41  109 1    
    83   42   43 2    
    84   42   44 am   BACKBONE|DICT|INTERRES
    85   44   45 1    
    86   44  110 1    
    87   45   46 1    
    88   45   47 1    
    89   45  111 1    
    90   46  112 1    
    91   46  113 1    
    92   46  114 1    
    93   47   48 2    
    94   47   49 am   BACKBONE|DICT|INTERRES
    95   49   50 1    
    96   49  115 1    
    97   50   51 1    
    98   50   52 1    
    99   50  116 1    
   100   51  117 1    
   101   51  118 1    
   102   51  119 1    
   103   52   53 2    
   104   52   54 am   BACKBONE|DICT|INTERRES
   105   54   55 1    
   106   54  120 1    
   107   55   56 1    
   108   55   57 1    
   109   55  121 1    
   110   56  122 1    
   111   56  123 1    
   112   56  124 1    
   113   57   58 2    
   114   57   59 am   BACKBONE|DICT|INTERRES
   115   59   60 1    
   116   59  125 1    
   117   60   61 1    
   118   60   62 1    
   119   60  126 1    
   120   61  127 1    
   121   61  128 1    
   122   61  129 1    
   123   62   63 2    
   124   62   64 am   BACKBONE|DICT|INTERRES
   125   64   65 1    
   126   64  130 1    
   127   65   66 1    
   128   65   69 1    
   129   65  131 1    
   130   66   67 am   BACKBONE|DICT|INTERRES
   131   66   68 2    
   132   67  132 1    
   133   67  133 1    
   134   69   70 1    
   135   69  134 1    
   136   69  135 1    
   137   70   71 1    
   138   71  136 1    
   139   71  137 1    
@<TRIPOS>SUBSTRUCTURE
     1 UNK         1 GROUP             0       ****    0 ROOT    
