@<TRIPOS>MOLECULE
3R136
137   139    1
SMALL
USER_CHARGES


@<TRIPOS>ATOM
      1 CA         27.0404   20.7308    4.1238 C.3       0 UNK        -0.1979 
      2 C          27.2312   20.2100    2.7067 C.2       0 UNK         0.4864 
      3 O          27.0280   19.0198    2.4616 O.2       0 UNK        -0.5359 
      4 N          27.6147   21.0952    1.7816 N.am      1 UNK        -0.4318 
      5 CA         27.7903   20.8237    0.3519 C.3       1 UNK         0.0824 
      6 C6         29.2855   20.8297   -0.0839 C.3       12 UNK        -0.0944 
      7 S7         30.3386   19.6689    0.8542 S.3       12 UNK        -0.2672 
      8 C8         31.9218   20.5839    0.9619 C.3       12 UNK         0.0333 
      9 C9         31.8470   21.9572    1.6341 C.ar      12 UNK        -0.0807 
     10 C10        32.7769   22.9416    1.2779 C.ar      12 UNK        -0.0894 
     11 C11        32.7319   24.2187    1.8501 C.ar      12 UNK        -0.0804 
     12 C12        31.7325   24.5061    2.7855 C.ar      12 UNK        -0.0824 
     13 C13        30.7908   23.5396    3.1428 C.ar      12 UNK        -0.0762 
     14 C14        30.8709   22.2608    2.5905 C.ar      12 UNK        -0.0782 
     15 C15        29.6506   23.8995    4.0771 C.3       12 UNK         0.0230 
     16 S16        28.2335   24.4766    3.0941 S.3       12 UNK        -0.2608 
     17 C17        27.5612   25.8005    4.1511 C.3       12 UNK        -0.0989 
     18 CA         28.3189   27.1466    4.0001 C.3       5 UNK         0.0716 
     19 N          28.4251   27.5817    2.6032 N.am      5 UNK        -0.4135 
     20 C          29.0808   28.6592    2.1527 C.2       4 UNK         0.5031 
     21 O          29.6535   29.4599    2.8957 O.2       4 UNK        -0.5229 
     22 CA         29.1068   28.8900    0.6248 C.3       4 UNK         0.0329 
     23 CB         30.1227   29.9757    0.2203 C.3       4 UNK        -0.2001 
     24 N          29.3828   27.6846   -0.1655 N.am      4 UNK        -0.4303 
     25 C          28.5232   26.6874   -0.4057 C.2       3 UNK         0.5044 
     26 O          27.3962   26.6259    0.0937 O.2       3 UNK        -0.5152 
     27 CA         29.0096   25.5812   -1.3522 C.3       3 UNK         0.0319 
     28 CB         30.1818   24.7902   -0.7427 C.3       3 UNK        -0.2001 
     29 N          27.9120   24.6596   -1.6201 N.am      3 UNK        -0.4354 
     30 C          27.7276   23.9434   -2.7329 C.2       2 UNK         0.4964 
     31 O          28.4343   24.0411   -3.7379 O.2       2 UNK        -0.5047 
     32 CA         26.6088   22.8826   -2.6688 C.3       2 UNK         0.0288 
     33 CB         26.2739   22.2845   -4.0483 C.3       2 UNK        -0.2113 
     34 N          27.0109   21.8016   -1.7627 N.am      2 UNK        -0.4145 
     35 C          27.0048   21.8973   -0.4256 C.2       1 UNK         0.5006 
     36 O          26.4636   22.8302    0.1776 O.2       1 UNK        -0.5103 
     37 C          27.6764   28.2438    4.8729 C.2       5 UNK         0.5055 
     38 O          26.4652   28.4557    4.7860 O.2       5 UNK        -0.5220 
     39 N          28.5149   28.9409    5.6554 N.am      6 UNK        -0.4450 
     40 CA         28.1926   30.1161    6.4774 C.3       6 UNK         0.0367 
     41 CB         27.2378   29.7368    7.6299 C.3       6 UNK        -0.1929 
     42 C          27.6923   31.3334    5.6651 C.2       6 UNK         0.5070 
     43 O          26.9911   32.1816    6.2197 O.2       6 UNK        -0.5237 
     44 N          28.0642   31.4090    4.3796 N.am      7 UNK        -0.4739 
     45 CA         27.7343   32.5010    3.4643 C.3       7 UNK         0.0276 
     46 CB         26.9811   31.9294    2.2456 C.3       7 UNK        -0.1927 
     47 C          29.0247   33.2630    3.1180 C.2       7 UNK         0.5013 
     48 O          29.7296   33.6793    4.0403 O.2       7 UNK        -0.5193 
     49 N          29.3123   33.4455    1.8190 N.am      8 UNK        -0.4253 
     50 CA         30.4730   34.1545    1.2643 C.3       8 UNK         0.0242 
     51 CB         30.4659   34.0155   -0.2678 C.3       8 UNK        -0.2000 
     52 C          31.8077   33.6661    1.8552 C.2       8 UNK         0.4948 
     53 O          32.2313   32.5438    1.5671 O.2       8 UNK        -0.5275 
     54 N          32.3928   34.4960    2.7337 N.am      9 UNK        -0.4246 
     55 CA         33.5946   34.2420    3.5435 C.3       9 UNK         0.0261 
     56 CB         34.8475   34.2200    2.6418 C.3       9 UNK        -0.1959 
     57 C          33.5014   32.9813    4.4319 C.2       9 UNK         0.5033 
     58 O          34.5379   32.4255    4.8001 O.2       9 UNK        -0.5390 
     59 N          32.2726   32.5154    4.7118 N.am      10 UNK        -0.4215 
     60 CA         31.9250   31.2291    5.3269 C.3       10 UNK         0.0240 
     61 CB         32.2101   31.2647    6.8425 C.3       10 UNK        -0.1982 
     62 C          32.5618   30.0094    4.6228 C.2       10 UNK         0.4970 
     63 O          32.8419   29.0100    5.2869 O.2       10 UNK        -0.4916 
     64 N          32.7933   30.1188    3.3048 N.am      11 UNK        -0.4279 
     65 CA         33.5323   29.1525    2.4774 C.3       11 UNK         0.1003 
     66 C          35.0701   29.1142    2.7501 C.2       11 UNK         0.5709 
     67 N          35.6483   30.0651    3.4759 N.am      11 UNK        -0.7358 
     68 O          35.7687   28.2235    2.2730 O.2       11 UNK        -0.4999 
     69 C69        32.8646   27.7463    2.4796 C.3       12 UNK        -0.0954 
     70 S70        33.0429   26.8466    0.9028 S.3       12 UNK        -0.2268 
     71 C71        33.7728   25.2676    1.4590 C.3       12 UNK         0.0203 
     72 H72        27.8261   20.3463    4.7734 H         1 UNK         0.0888 
     73 H73        27.0655   21.8194    4.1642 H         1 UNK         0.0888 
     74 H74        26.0791   20.4034    4.5191 H         1 UNK         0.0888 
     75 H75        27.6708   22.0778    2.0206 H         1 UNK         0.3017 
     76 H76        27.3496   19.8577    0.0971 H         1 UNK         0.0873 
     77 H77        29.3812   20.5611   -1.1371 H         1 UNK         0.0745 
     78 H78        29.6950   21.8371    0.0024 H         1 UNK         0.0745 
     79 H79        32.6384   19.9707    1.5094 H         1 UNK         0.0705 
     80 H80        32.3159   20.6902   -0.0501 H         1 UNK         0.0705 
     81 H81        33.5407   22.7111    0.5475 H         1 UNK         0.1334 
     82 H82        31.6628   25.4893    3.2236 H         1 UNK         0.1417 
     83 H83        30.1452   21.5156    2.8815 H         1 UNK         0.1562 
     84 H84        29.9734   24.6705    4.7779 H         1 UNK         0.0748 
     85 H85        29.3548   23.0385    4.6781 H         1 UNK         0.0748 
     86 H86        27.5709   25.4646    5.1899 H         1 UNK         0.0940 
     87 H87        26.5094   25.9232    3.8845 H         1 UNK         0.0940 
     88 H88        29.3408   26.9899    4.3511 H         1 UNK         0.0703 
     89 H89        27.9539   27.0005    1.9163 H         1 UNK         0.3081 
     90 H90        28.1129   29.2488    0.3507 H         1 UNK         0.0719 
     91 H91        31.1447   29.6747    0.4525 H         1 UNK         0.0809 
     92 H92        30.0702   30.1960   -0.8458 H         1 UNK         0.0809 
     93 H93        29.9385   30.9099    0.7496 H         1 UNK         0.0809 
     94 H94        30.3059   27.6267   -0.5714 H         1 UNK         0.2990 
     95 H95        29.3274   26.0513   -2.2853 H         1 UNK         0.0690 
     96 H96        31.0624   25.4186   -0.6237 H         1 UNK         0.0788 
     97 H97        30.4755   23.9542   -1.3775 H         1 UNK         0.0788 
     98 H98        29.9297   24.3895    0.2404 H         1 UNK         0.0788 
     99 H99        27.2698   24.5310   -0.8433 H         1 UNK         0.2993 
    100 H100       25.7079   23.3663   -2.2838 H         1 UNK         0.0949 
    101 H101       25.4499   21.5738   -3.9814 H         1 UNK         0.0767 
    102 H102       25.9716   23.0652   -4.7476 H         1 UNK         0.0767 
    103 H103       27.1283   21.7665   -4.4861 H         1 UNK         0.0767 
    104 H104       27.4795   21.0164   -2.1915 H         1 UNK         0.3013 
    105 H105       29.4960   28.7013    5.6140 H         1 UNK         0.3121 
    106 H106       29.1331   30.4327    6.9303 H         1 UNK         0.0774 
    107 H107       27.1233   30.5635    8.3321 H         1 UNK         0.0815 
    108 H108       26.2423   29.4831    7.2646 H         1 UNK         0.0815 
    109 H109       27.6157   28.8853    8.1955 H         1 UNK         0.0815 
    110 H110       28.6659   30.6822    3.9989 H         1 UNK         0.2987 
    111 H111       27.0758   33.2227    3.9521 H         1 UNK         0.0949 
    112 H112       27.5982   31.2477    1.6629 H         1 UNK         0.0806 
    113 H113       26.0955   31.3774    2.5618 H         1 UNK         0.0806 
    114 H114       26.6365   32.7238    1.5823 H         1 UNK         0.0806 
    115 H115       28.6712   33.0590    1.1428 H         1 UNK         0.3010 
    116 H116       30.3504   35.2127    1.5038 H         1 UNK         0.0829 
    117 H117       29.5586   34.4348   -0.7028 H         1 UNK         0.0813 
    118 H118       31.3102   34.5459   -0.7102 H         1 UNK         0.0813 
    119 H119       30.5391   32.9734   -0.5813 H         1 UNK         0.0813 
    120 H120       31.9251   35.3708    2.9306 H         1 UNK         0.3038 
    121 H121       33.6895   35.0863    4.2278 H         1 UNK         0.0769 
    122 H122       34.8492   33.3564    1.9756 H         1 UNK         0.0811 
    123 H123       35.7605   34.1727    3.2367 H         1 UNK         0.0811 
    124 H124       34.9109   35.1179    2.0274 H         1 UNK         0.0811 
    125 H125       31.4748   33.0543    4.3778 H         1 UNK         0.3204 
    126 H126       30.8496   31.1170    5.1919 H         1 UNK         0.0748 
    127 H127       31.8443   30.3630    7.3351 H         1 UNK         0.0771 
    128 H128       33.2786   31.3384    7.0480 H         1 UNK         0.0771 
    129 H129       31.7177   32.1132    7.3177 H         1 UNK         0.0771 
    130 H130       32.5273   30.9756    2.8289 H         1 UNK         0.2980 
    131 H131       33.4442   29.5588    1.4696 H         1 UNK         0.0545 
    132 H132       35.1117   30.8204    3.8922 H         1 UNK         0.3459 
    133 H133       36.6429   30.0221    3.6275 H         1 UNK         0.3459 
    134 H134       33.2443   27.1499    3.3103 H         1 UNK         0.0616 
    135 H135       31.7936   27.8386    2.6533 H         1 UNK         0.0616 
    136 H136       34.4507   25.4407    2.2956 H         1 UNK         0.0634 
    137 H137       34.3936   24.8918    0.6445 H         1 UNK         0.0634 
@<TRIPOS>BOND
     1    1    2 1    
     2    1   72 1    
     3    1   73 1    
     4    1   74 1    
     5    2    3 2    
     6    2    4 am   BACKBONE|DICT|INTERRES
     7    4    5 1    
     8    4   75 1    
     9    5    6 1    
    10    5   35 1    
    11    5   76 1    
    12    6    7 1    
    13    6   77 1    
    14    6   78 1    
    15    7    8 1    
    16    8    9 1    
    17    8   79 1    
    18    8   80 1    
    19    9   10 ar   
    20    9   14 ar   
    21   10   11 ar   
    22   10   81 1    
    23   11   12 ar   
    24   11   71 1    
    25   12   13 ar   
    26   12   82 1    
    27   13   14 ar   
    28   13   15 1    
    29   14   83 1    
    30   15   16 1    
    31   15   84 1    
    32   15   85 1    
    33   16   17 1    
    34   17   18 1    
    35   17   86 1    
    36   17   87 1    
    37   18   19 1    
    38   18   37 1    
    39   18   88 1    
    40   19   20 am   BACKBONE|DICT|INTERRES
    41   19   89 1    
    42   20   21 2    
    43   20   22 1    
    44   22   23 1    
    45   22   24 1    
    46   22   90 1    
    47   23   91 1    
    48   23   92 1    
    49   23   93 1    
    50   24   25 am   BACKBONE|DICT|INTERRES
    51   24   94 1    
    52   25   26 2    
    53   25   27 1    
    54   27   28 1    
    55   27   29 1    
    56   27   95 1    
    57   28   96 1    
    58   28   97 1    
    59   28   98 1    
    60   29   30 am   BACKBONE|DICT|INTERRES
    61   29   99 1    
    62   30   31 2    
    63   30   32 1    
    64   32   33 1    
    65   32   34 1    
    66   32  100 1    
    67   33  101 1    
    68   33  102 1    
    69   33  103 1    
    70   34   35 am   BACKBONE|DICT|INTERRES
    71   34  104 1    
    72   35   36 2    
    73   37   38 2    
    74   37   39 am   BACKBONE|DICT|INTERRES
    75   39   40 1    
    76   39  105 1    
    77   40   41 1    
    78   40   42 1    
    79   40  106 1    
    80   41  107 1    
    81   41  108 1    
    82   41  109 1    
    83   42   43 2    
    84   42   44 am   BACKBONE|DICT|INTERRES
    85   44   45 1    
    86   44  110 1    
    87   45   46 1    
    88   45   47 1    
    89   45  111 1    
    90   46  112 1    
    91   46  113 1    
    92   46  114 1    
    93   47   48 2    
    94   47   49 am   BACKBONE|DICT|INTERRES
    95   49   50 1    
    96   49  115 1    
    97   50   51 1    
    98   50   52 1    
    99   50  116 1    
   100   51  117 1    
   101   51  118 1    
   102   51  119 1    
   103   52   53 2    
   104   52   54 am   BACKBONE|DICT|INTERRES
   105   54   55 1    
   106   54  120 1    
   107   55   56 1    
   108   55   57 1    
   109   55  121 1    
   110   56  122 1    
   111   56  123 1    
   112   56  124 1    
   113   57   58 2    
   114   57   59 am   BACKBONE|DICT|INTERRES
   115   59   60 1    
   116   59  125 1    
   117   60   61 1    
   118   60   62 1    
   119   60  126 1    
   120   61  127 1    
   121   61  128 1    
   122   61  129 1    
   123   62   63 2    
   124   62   64 am   BACKBONE|DICT|INTERRES
   125   64   65 1    
   126   64  130 1    
   127   65   66 1    
   128   65   69 1    
   129   65  131 1    
   130   66   67 am   BACKBONE|DICT|INTERRES
   131   66   68 2    
   132   67  132 1    
   133   67  133 1    
   134   69   70 1    
   135   69  134 1    
   136   69  135 1    
   137   70   71 1    
   138   71  136 1    
   139   71  137 1    
@<TRIPOS>SUBSTRUCTURE
     1 UNK         1 GROUP             0       ****    0 ROOT    
