@<TRIPOS>MOLECULE
3R136
137   139    1
SMALL
USER_CHARGES


@<TRIPOS>ATOM
      1 CA         28.5461   19.9790    0.0020 C.3       0 UNK        -0.1979 
      2 C          28.7765   20.8726   -1.2081 C.2       0 UNK         0.4864 
      3 O          28.4646   20.4759   -2.3322 O.2       0 UNK        -0.5359 
      4 N          29.3266   22.0719   -0.9859 N.am      1 UNK        -0.4318 
      5 CA         29.5380   23.1054   -2.0021 C.3       1 UNK         0.0824 
      6 C6         30.6104   24.1398   -1.5630 C.3       12 UNK        -0.0944 
      7 S7         30.3571   24.8291    0.1127 S.3       12 UNK        -0.2672 
      8 C8         31.6282   23.9110    1.0376 C.3       12 UNK         0.0333 
      9 C9         31.4334   24.0490    2.5384 C.ar      12 UNK        -0.0807 
     10 C10        32.2040   24.9545    3.2734 C.ar      12 UNK        -0.0894 
     11 C11        32.0298   25.0725    4.6558 C.ar      12 UNK        -0.0804 
     12 C12        31.0763   24.2814    5.3029 C.ar      12 UNK        -0.0824 
     13 C13        30.2968   23.3771    4.5761 C.ar      12 UNK        -0.0762 
     14 C14        30.4859   23.2587    3.1961 C.ar      12 UNK        -0.0782 
     15 C15        29.2365   22.5405    5.2758 C.3       12 UNK         0.0230 
     16 S16        27.5552   23.0825    4.8333 S.3       12 UNK        -0.2608 
     17 C17        27.4916   24.7629    5.5490 C.3       12 UNK        -0.0989 
     18 CA         27.8524   25.8782    4.5332 C.3       5 UNK         0.0716 
     19 N          27.0727   25.7767    3.2963 N.am      5 UNK        -0.4135 
     20 C          27.2464   26.5278    2.2012 C.2       4 UNK         0.5031 
     21 O          28.0831   27.4293    2.1167 O.2       4 UNK        -0.5229 
     22 CA         26.3240   26.1788    1.0185 C.3       4 UNK         0.0329 
     23 CB         24.8670   26.6152    1.2814 C.3       4 UNK        -0.2001 
     24 N          26.8131   26.6652   -0.2776 N.am      4 UNK        -0.4303 
     25 C          26.8540   27.9225   -0.7503 C.2       3 UNK         0.5044 
     26 O          26.4091   28.9058   -0.1597 O.2       3 UNK        -0.5152 
     27 CA         27.4823   28.1354   -2.1433 C.3       3 UNK         0.0319 
     28 CB         28.8652   28.7920   -2.0177 C.3       3 UNK        -0.2001 
     29 N          27.6115   26.9062   -2.9281 N.am      3 UNK        -0.4354 
     30 C          26.5936   26.2609   -3.5154 C.2       2 UNK         0.4964 
     31 O          25.4349   26.6772   -3.5289 O.2       2 UNK        -0.5047 
     32 CA         26.9167   24.9123   -4.1865 C.3       2 UNK         0.0288 
     33 CB         27.1010   25.0968   -5.7018 C.3       2 UNK        -0.2113 
     34 N          28.0970   24.2326   -3.6359 N.am      2 UNK        -0.4145 
     35 C          28.2055   23.7852   -2.3759 C.2       1 UNK         0.5006 
     36 O          27.3260   23.9311   -1.5223 O.2       1 UNK        -0.5103 
     37 C          27.6931   27.2672    5.1799 C.2       5 UNK         0.5055 
     38 O          26.5725   27.7802    5.2396 O.2       5 UNK        -0.5220 
     39 N          28.8124   27.8533    5.6300 N.am      6 UNK        -0.4450 
     40 CA         28.9796   29.2088    6.1814 C.3       6 UNK         0.0367 
     41 CB         28.1060   29.4445    7.4288 C.3       6 UNK        -0.1929 
     42 C          28.7898   30.3267    5.1395 C.2       6 UNK         0.5070 
     43 O          29.6277   31.2253    5.0585 O.2       6 UNK        -0.5237 
     44 N          27.7277   30.2317    4.3296 N.am      7 UNK        -0.4739 
     45 CA         27.3890   31.1316    3.2220 C.3       7 UNK         0.0276 
     46 CB         26.0299   30.7139    2.6427 C.3       7 UNK        -0.1927 
     47 C          28.4640   31.2112    2.1200 C.2       7 UNK         0.5013 
     48 O          28.5506   32.2349    1.4408 O.2       7 UNK        -0.5193 
     49 N          29.3000   30.1687    2.0062 N.am      8 UNK        -0.4253 
     50 CA         30.5211   30.1281    1.1984 C.3       8 UNK         0.0242 
     51 CB         31.1092   28.7070    1.2534 C.3       8 UNK        -0.2000 
     52 C          31.5954   31.1608    1.5952 C.2       8 UNK         0.4948 
     53 O          32.5049   31.3917    0.7974 O.2       8 UNK        -0.5275 
     54 N          31.5123   31.7401    2.8057 N.am      9 UNK        -0.4246 
     55 CA         32.3699   32.7854    3.3933 C.3       9 UNK         0.0261 
     56 CB         32.3498   34.0737    2.5484 C.3       9 UNK        -0.1959 
     57 C          33.8139   32.3497    3.7044 C.2       9 UNK         0.5033 
     58 O          34.3579   32.7614    4.7308 O.2       9 UNK        -0.5390 
     59 N          34.3908   31.4836    2.8610 N.am      10 UNK        -0.4215 
     60 CA         35.6994   30.8363    3.0173 C.3       10 UNK         0.0240 
     61 CB         35.9829   29.9886    1.7662 C.3       10 UNK        -0.1982 
     62 C          35.8361   29.9769    4.2905 C.2       10 UNK         0.4970 
     63 O          36.9588   29.6562    4.6821 O.2       10 UNK        -0.4916 
     64 N          34.7015   29.6388    4.9153 N.am      11 UNK        -0.4279 
     65 CA         34.5916   28.9971    6.2307 C.3       11 UNK         0.1003 
     66 C          35.1950   29.8258    7.4033 C.2       11 UNK         0.5709 
     67 N          35.3356   31.1422    7.2812 N.am      11 UNK        -0.7358 
     68 O          35.5379   29.2618    8.4395 O.2       11 UNK        -0.4999 
     69 C69        33.1211   28.6222    6.5588 C.3       12 UNK        -0.0954 
     70 S70        32.2501   27.7502    5.2153 S.3       12 UNK        -0.2268 
     71 C71        32.8658   26.0601    5.4504 C.3       12 UNK         0.0203 
     72 H72        28.8775   20.4507    0.9270 H         1 UNK         0.0888 
     73 H73        27.4857   19.7483    0.1008 H         1 UNK         0.0888 
     74 H74        29.0899   19.0419   -0.1142 H         1 UNK         0.0888 
     75 H75        29.5088   22.3712   -0.0398 H         1 UNK         0.3017 
     76 H76        29.9114   22.6090   -2.9009 H         1 UNK         0.0873 
     77 H77        31.5951   23.6716   -1.6058 H         1 UNK         0.0745 
     78 H78        30.6644   24.9694   -2.2704 H         1 UNK         0.0745 
     79 H79        31.5955   22.8549    0.7660 H         1 UNK         0.0705 
     80 H80        32.6149   24.2726    0.7437 H         1 UNK         0.0705 
     81 H81        32.9354   25.5732    2.7712 H         1 UNK         0.1334 
     82 H82        30.9339   24.3774    6.3708 H         1 UNK         0.1417 
     83 H83        29.8797   22.5628    2.6329 H         1 UNK         0.1562 
     84 H84        29.3569   22.5770    6.3597 H         1 UNK         0.0748 
     85 H85        29.3575   21.4946    4.9902 H         1 UNK         0.0748 
     86 H86        28.1513   24.8072    6.4178 H         1 UNK         0.0940 
     87 H87        26.4811   24.9147    5.9346 H         1 UNK         0.0940 
     88 H88        28.8977   25.7623    4.2429 H         1 UNK         0.0703 
     89 H89        26.3613   25.0615    3.2910 H         1 UNK         0.3081 
     90 H90        26.3316   25.0913    0.9268 H         1 UNK         0.0719 
     91 H91        24.7893   27.6849    1.4762 H         1 UNK         0.0809 
     92 H92        24.2241   26.3812    0.4328 H         1 UNK         0.0809 
     93 H93        24.4532   26.1026    2.1502 H         1 UNK         0.0809 
     94 H94        27.2036   25.9364   -0.8634 H         1 UNK         0.2990 
     95 H95        26.8318   28.8208   -2.6908 H         1 UNK         0.0690 
     96 H96        29.3085   28.9819   -2.9953 H         1 UNK         0.0788 
     97 H97        29.5567   28.1718   -1.4460 H         1 UNK         0.0788 
     98 H98        28.7843   29.7532   -1.5097 H         1 UNK         0.0788 
     99 H99        28.5326   26.4979   -2.9831 H         1 UNK         0.2993 
    100 H100       26.0556   24.2605   -4.0226 H         1 UNK         0.0949 
    101 H101       27.2338   24.1392   -6.2058 H         1 UNK         0.0767 
    102 H102       26.2267   25.5750   -6.1462 H         1 UNK         0.0767 
    103 H103       27.9654   25.7215   -5.9309 H         1 UNK         0.0767 
    104 H104       28.8639   24.0796   -4.2755 H         1 UNK         0.3013 
    105 H105       29.6836   27.3562    5.4949 H         1 UNK         0.3121 
    106 H106       30.0182   29.2666    6.5087 H         1 UNK         0.0774 
    107 H107       28.3416   30.4054    7.8879 H         1 UNK         0.0815 
    108 H108       27.0418   29.4553    7.1926 H         1 UNK         0.0815 
    109 H109       28.2753   28.6753    8.1822 H         1 UNK         0.0815 
    110 H110       27.1093   29.4386    4.4814 H         1 UNK         0.2987 
    111 H111       27.2897   32.1366    3.6371 H         1 UNK         0.0949 
    112 H112       26.0387   29.6707    2.3265 H         1 UNK         0.0806 
    113 H113       25.2322   30.8336    3.3757 H         1 UNK         0.0806 
    114 H114       25.7673   31.3176    1.7728 H         1 UNK         0.0806 
    115 H115       29.0646   29.3218    2.5114 H         1 UNK         0.3010 
    116 H116       30.2420   30.3495    0.1683 H         1 UNK         0.0829 
    117 H117       30.4030   27.9686    0.8739 H         1 UNK         0.0813 
    118 H118       32.0112   28.6283    0.6451 H         1 UNK         0.0813 
    119 H119       31.3745   28.4185    2.2712 H         1 UNK         0.0813 
    120 H120       30.7511   31.4464    3.4124 H         1 UNK         0.3038 
    121 H121       31.9097   33.0212    4.3543 H         1 UNK         0.0769 
    122 H122       31.3303   34.4232    2.3850 H         1 UNK         0.0811 
    123 H123       32.8161   33.9318    1.5731 H         1 UNK         0.0811 
    124 H124       32.8914   34.8760    3.0514 H         1 UNK         0.0811 
    125 H125       33.8619   31.2604    2.0194 H         1 UNK         0.3204 
    126 H126       36.4503   31.6261    3.0802 H         1 UNK         0.0748 
    127 H127       35.9757   30.5993    0.8631 H         1 UNK         0.0771 
    128 H128       36.9635   29.5144    1.8269 H         1 UNK         0.0771 
    129 H129       35.2433   29.1964    1.6412 H         1 UNK         0.0771 
    130 H130       33.8292   29.9280    4.5016 H         1 UNK         0.2980 
    131 H131       35.1687   28.0725    6.1756 H         1 UNK         0.0545 
    132 H132       35.0465   31.6187    6.4355 H         1 UNK         0.3459 
    133 H133       35.7282   31.6685    8.0453 H         1 UNK         0.3459 
    134 H134       32.5457   29.5249    6.7738 H         1 UNK         0.0616 
    135 H135       33.0722   28.0138    7.4637 H         1 UNK         0.0616 
    136 H136       32.8482   25.8057    6.5112 H         1 UNK         0.0634 
    137 H137       33.9083   26.0071    5.1334 H         1 UNK         0.0634 
@<TRIPOS>BOND
     1    1    2 1    
     2    1   72 1    
     3    1   73 1    
     4    1   74 1    
     5    2    3 2    
     6    2    4 am   BACKBONE|DICT|INTERRES
     7    4    5 1    
     8    4   75 1    
     9    5    6 1    
    10    5   35 1    
    11    5   76 1    
    12    6    7 1    
    13    6   77 1    
    14    6   78 1    
    15    7    8 1    
    16    8    9 1    
    17    8   79 1    
    18    8   80 1    
    19    9   10 ar   
    20    9   14 ar   
    21   10   11 ar   
    22   10   81 1    
    23   11   12 ar   
    24   11   71 1    
    25   12   13 ar   
    26   12   82 1    
    27   13   14 ar   
    28   13   15 1    
    29   14   83 1    
    30   15   16 1    
    31   15   84 1    
    32   15   85 1    
    33   16   17 1    
    34   17   18 1    
    35   17   86 1    
    36   17   87 1    
    37   18   19 1    
    38   18   37 1    
    39   18   88 1    
    40   19   20 am   BACKBONE|DICT|INTERRES
    41   19   89 1    
    42   20   21 2    
    43   20   22 1    
    44   22   23 1    
    45   22   24 1    
    46   22   90 1    
    47   23   91 1    
    48   23   92 1    
    49   23   93 1    
    50   24   25 am   BACKBONE|DICT|INTERRES
    51   24   94 1    
    52   25   26 2    
    53   25   27 1    
    54   27   28 1    
    55   27   29 1    
    56   27   95 1    
    57   28   96 1    
    58   28   97 1    
    59   28   98 1    
    60   29   30 am   BACKBONE|DICT|INTERRES
    61   29   99 1    
    62   30   31 2    
    63   30   32 1    
    64   32   33 1    
    65   32   34 1    
    66   32  100 1    
    67   33  101 1    
    68   33  102 1    
    69   33  103 1    
    70   34   35 am   BACKBONE|DICT|INTERRES
    71   34  104 1    
    72   35   36 2    
    73   37   38 2    
    74   37   39 am   BACKBONE|DICT|INTERRES
    75   39   40 1    
    76   39  105 1    
    77   40   41 1    
    78   40   42 1    
    79   40  106 1    
    80   41  107 1    
    81   41  108 1    
    82   41  109 1    
    83   42   43 2    
    84   42   44 am   BACKBONE|DICT|INTERRES
    85   44   45 1    
    86   44  110 1    
    87   45   46 1    
    88   45   47 1    
    89   45  111 1    
    90   46  112 1    
    91   46  113 1    
    92   46  114 1    
    93   47   48 2    
    94   47   49 am   BACKBONE|DICT|INTERRES
    95   49   50 1    
    96   49  115 1    
    97   50   51 1    
    98   50   52 1    
    99   50  116 1    
   100   51  117 1    
   101   51  118 1    
   102   51  119 1    
   103   52   53 2    
   104   52   54 am   BACKBONE|DICT|INTERRES
   105   54   55 1    
   106   54  120 1    
   107   55   56 1    
   108   55   57 1    
   109   55  121 1    
   110   56  122 1    
   111   56  123 1    
   112   56  124 1    
   113   57   58 2    
   114   57   59 am   BACKBONE|DICT|INTERRES
   115   59   60 1    
   116   59  125 1    
   117   60   61 1    
   118   60   62 1    
   119   60  126 1    
   120   61  127 1    
   121   61  128 1    
   122   61  129 1    
   123   62   63 2    
   124   62   64 am   BACKBONE|DICT|INTERRES
   125   64   65 1    
   126   64  130 1    
   127   65   66 1    
   128   65   69 1    
   129   65  131 1    
   130   66   67 am   BACKBONE|DICT|INTERRES
   131   66   68 2    
   132   67  132 1    
   133   67  133 1    
   134   69   70 1    
   135   69  134 1    
   136   69  135 1    
   137   70   71 1    
   138   71  136 1    
   139   71  137 1    
@<TRIPOS>SUBSTRUCTURE
     1 UNK         1 GROUP             0       ****    0 ROOT    
