@<TRIPOS>MOLECULE
3R136
137   139    1
SMALL
USER_CHARGES


@<TRIPOS>ATOM
      1 CA         26.0380   20.1303    2.6148 C.3       0 UNK        -0.1979 
      2 C          26.6144   21.0818    1.5778 C.2       0 UNK         0.4864 
      3 O          25.8909   21.9332    1.0601 O.2       0 UNK        -0.5359 
      4 N          27.9169   20.9593    1.2834 N.am      1 UNK        -0.4318 
      5 CA         28.6575   21.7614    0.2968 C.3       1 UNK         0.0824 
      6 C6         30.1023   21.2409    0.0927 C.3       12 UNK        -0.0944 
      7 S7         31.0687   21.0864    1.6384 S.3       12 UNK        -0.2672 
      8 C8         32.5319   22.1107    1.2870 C.3       12 UNK         0.0333 
      9 C9         32.2742   23.5892    1.5386 C.ar      12 UNK        -0.0807 
     10 C10        32.4210   24.1139    2.8241 C.ar      12 UNK        -0.0894 
     11 C11        32.2379   25.4787    3.0582 C.ar      12 UNK        -0.0804 
     12 C12        31.8870   26.3229    1.9983 C.ar      12 UNK        -0.0824 
     13 C13        31.7210   25.8086    0.7037 C.ar      12 UNK        -0.0762 
     14 C14        31.9239   24.4407    0.4878 C.ar      12 UNK        -0.0782 
     15 C15        31.3143   26.6621   -0.4994 C.3       12 UNK         0.0230 
     16 S16        31.4305   28.4752   -0.3004 S.3       12 UNK        -0.2608 
     17 C17        29.8238   28.9193    0.4430 C.3       12 UNK        -0.0989 
     18 CA         28.7422   29.2028   -0.6343 C.3       5 UNK         0.0716 
     19 N          28.1866   27.9613   -1.1781 N.am      5 UNK        -0.4135 
     20 C          27.6186   27.8305   -2.3839 C.2       4 UNK         0.5031 
     21 O          27.5728   28.7280   -3.2257 O.2       4 UNK        -0.5229 
     22 CA         26.9829   26.4644   -2.7000 C.3       4 UNK         0.0329 
     23 CB         28.0092   25.5324   -3.3640 C.3       4 UNK        -0.2001 
     24 N          26.4274   25.8176   -1.5062 N.am      4 UNK        -0.4303 
     25 C          25.2937   26.2110   -0.9017 C.2       3 UNK         0.5044 
     26 O          24.5620   27.0978   -1.3412 O.2       3 UNK        -0.5152 
     27 CA         24.9172   25.5354    0.4321 C.3       3 UNK         0.0319 
     28 CB         23.9027   24.4071    0.1923 C.3       3 UNK        -0.2001 
     29 N          26.0665   25.0118    1.1778 N.am      3 UNK        -0.4354 
     30 C          27.0656   25.7696    1.6592 C.2       2 UNK         0.4964 
     31 O          27.0771   26.9962    1.5737 O.2       2 UNK        -0.5047 
     32 CA         28.2894   25.0644    2.2721 C.3       2 UNK         0.0288 
     33 CB         28.2406   25.1172    3.8062 C.3       2 UNK        -0.2113 
     34 N          28.4682   23.6785    1.8343 N.am      2 UNK        -0.4145 
     35 C          28.6255   23.2816    0.5620 C.2       1 UNK         0.5006 
     36 O          28.6804   24.0613   -0.3915 O.2       1 UNK        -0.5103 
     37 C          27.6186   30.1103   -0.0889 C.2       5 UNK         0.5055 
     38 O          27.7381   31.3323   -0.1844 O.2       5 UNK        -0.5220 
     39 N          26.5576   29.4987    0.4643 N.am      6 UNK        -0.4450 
     40 CA         25.3843   30.1126    1.1034 C.3       6 UNK         0.0367 
     41 CB         24.5799   30.9652    0.1000 C.3       6 UNK        -0.1929 
     42 C          25.7331   30.8739    2.3990 C.2       6 UNK         0.5070 
     43 O          24.9885   31.7623    2.8157 O.2       6 UNK        -0.5237 
     44 N          26.8587   30.4966    3.0110 N.am      7 UNK        -0.4739 
     45 CA         27.5097   31.0693    4.1830 C.3       7 UNK         0.0276 
     46 CB         27.9218   32.5342    3.9165 C.3       7 UNK        -0.1927 
     47 C          28.7492   30.2046    4.4567 C.2       7 UNK         0.5013 
     48 O          29.0589   29.3122    3.6607 O.2       7 UNK        -0.5193 
     49 N          29.4603   30.4968    5.5535 N.am      8 UNK        -0.4253 
     50 CA         30.7587   29.8868    5.8570 C.3       8 UNK         0.0242 
     51 CB         31.1814   30.2432    7.2908 C.3       8 UNK        -0.2000 
     52 C          31.8462   30.2955    4.8470 C.2       8 UNK         0.4948 
     53 O          32.6455   29.4505    4.4484 O.2       8 UNK        -0.5275 
     54 N          31.8381   31.5718    4.4298 N.am      9 UNK        -0.4246 
     55 CA         32.7514   32.1803    3.4563 C.3       9 UNK         0.0261 
     56 CB         32.4488   31.6560    2.0326 C.3       9 UNK        -0.1959 
     57 C          34.2241   32.0226    3.8848 C.2       9 UNK         0.5033 
     58 O          34.6727   32.7561    4.7672 O.2       9 UNK        -0.5390 
     59 N          34.9374   31.0707    3.2704 N.am      10 UNK        -0.4215 
     60 CA         36.3170   30.7126    3.6006 C.3       10 UNK         0.0240 
     61 CB         36.9474   30.0002    2.3922 C.3       10 UNK        -0.1982 
     62 C          36.4436   29.8367    4.8622 C.2       10 UNK         0.4970 
     63 O          37.5291   29.8000    5.4441 O.2       10 UNK        -0.4916 
     64 N          35.3733   29.1292    5.2496 N.am      11 UNK        -0.4279 
     65 CA         35.3457   28.2355    6.4175 C.3       11 UNK         0.1003 
     66 C          35.3396   29.0114    7.7627 C.2       11 UNK         0.5709 
     67 N          35.8431   28.4029    8.8282 N.am      11 UNK        -0.7358 
     68 O          34.8550   30.1372    7.8621 O.2       11 UNK        -0.4999 
     69 C69        34.1700   27.2232    6.3522 C.3       12 UNK        -0.0954 
     70 S70        34.2093   26.2153    4.8318 S.3       12 UNK        -0.2268 
     71 C71        32.4368   26.0385    4.4571 C.3       12 UNK         0.0203 
     72 H72        25.2319   19.5432    2.1760 H         1 UNK         0.0888 
     73 H73        26.7900   19.4412    2.9989 H         1 UNK         0.0888 
     74 H74        25.6318   20.6930    3.4549 H         1 UNK         0.0888 
     75 H75        28.4671   20.2565    1.7577 H         1 UNK         0.3017 
     76 H76        28.1339   21.6255   -0.6520 H         1 UNK         0.0873 
     77 H77        30.0623   20.2494   -0.3611 H         1 UNK         0.0745 
     78 H78        30.6357   21.8616   -0.6294 H         1 UNK         0.0745 
     79 H79        32.8684   21.9432    0.2626 H         1 UNK         0.0705 
     80 H80        33.3494   21.7743    1.9266 H         1 UNK         0.0705 
     81 H81        32.6985   23.4627    3.6419 H         1 UNK         0.1334 
     82 H82        31.7446   27.3765    2.1953 H         1 UNK         0.1417 
     83 H83        31.8034   24.0355   -0.5077 H         1 UNK         0.1562 
     84 H84        30.3044   26.3848   -0.7976 H         1 UNK         0.0748 
     85 H85        31.9568   26.3962   -1.3401 H         1 UNK         0.0748 
     86 H86        30.0044   29.8081    1.0515 H         1 UNK         0.0940 
     87 H87        29.5049   28.1455    1.1434 H         1 UNK         0.0940 
     88 H88        29.2115   29.7567   -1.4507 H         1 UNK         0.0703 
     89 H89        28.1497   27.1747   -0.5468 H         1 UNK         0.3081 
     90 H90        26.1699   26.6318   -3.4101 H         1 UNK         0.0719 
     91 H91        27.5674   24.5675   -3.6130 H         1 UNK         0.0809 
     92 H92        28.3840   25.9664   -4.2920 H         1 UNK         0.0809 
     93 H93        28.8707   25.3505   -2.7208 H         1 UNK         0.0809 
     94 H94        26.9866   25.0840   -1.0831 H         1 UNK         0.2990 
     95 H95        24.4401   26.2936    1.0567 H         1 UNK         0.0690 
     96 H96        23.0084   24.7848   -0.3054 H         1 UNK         0.0788 
     97 H97        23.5843   23.9521    1.1304 H         1 UNK         0.0788 
     98 H98        24.3185   23.6195   -0.4375 H         1 UNK         0.0788 
     99 H99        26.1259   24.0015    1.2611 H         1 UNK         0.2993 
    100 H100       29.1663   25.6223    1.9430 H         1 UNK         0.0949 
    101 H101       27.3963   24.5529    4.2040 H         1 UNK         0.0767 
    102 H102       29.1549   24.7155    4.2441 H         1 UNK         0.0767 
    103 H103       28.1432   26.1465    4.1560 H         1 UNK         0.0767 
    104 H104       28.4377   22.9664    2.5488 H         1 UNK         0.3013 
    105 H105       26.6282   28.4929    0.6019 H         1 UNK         0.3121 
    106 H106       24.7472   29.2816    1.4098 H         1 UNK         0.0774 
    107 H107       25.1217   31.8638   -0.1957 H         1 UNK         0.0815 
    108 H108       23.6320   31.2868    0.5329 H         1 UNK         0.0815 
    109 H109       24.3476   30.3987   -0.8020 H         1 UNK         0.0815 
    110 H110       27.3871   29.7219    2.6220 H         1 UNK         0.2987 
    111 H111       26.8321   31.0090    5.0367 H         1 UNK         0.0949 
    112 H112       28.5960   32.6107    3.0620 H         1 UNK         0.0806 
    113 H113       27.0582   33.1674    3.7144 H         1 UNK         0.0806 
    114 H114       28.4313   32.9698    4.7763 H         1 UNK         0.0806 
    115 H115       29.1351   31.2235    6.1749 H         1 UNK         0.3010 
    116 H116       30.6444   28.8022    5.7967 H         1 UNK         0.0829 
    117 H117       32.1323   29.7729    7.5430 H         1 UNK         0.0813 
    118 H118       31.3066   31.3184    7.4240 H         1 UNK         0.0813 
    119 H119       30.4483   29.8962    8.0191 H         1 UNK         0.0813 
    120 H120       31.1611   32.1967    4.8422 H         1 UNK         0.3038 
    121 H121       32.5452   33.2517    3.4604 H         1 UNK         0.0769 
    122 H122       32.5347   30.5714    1.9568 H         1 UNK         0.0811 
    123 H123       33.1243   32.0958    1.2976 H         1 UNK         0.0811 
    124 H124       31.4352   31.9201    1.7307 H         1 UNK         0.0811 
    125 H125       34.4638   30.4894    2.5937 H         1 UNK         0.3204 
    126 H126       36.8785   31.6313    3.7838 H         1 UNK         0.0748 
    127 H127       36.9305   30.6329    1.5045 H         1 UNK         0.0771 
    128 H128       37.9906   29.7477    2.5880 H         1 UNK         0.0771 
    129 H129       36.4268   29.0714    2.1542 H         1 UNK         0.0771 
    130 H130       34.4856   29.2418    4.7663 H         1 UNK         0.2980 
    131 H131       36.2708   27.6559    6.3917 H         1 UNK         0.0545 
    132 H132       35.8372   28.8839    9.7141 H         1 UNK         0.3459 
    133 H133       36.2346   27.4760    8.7645 H         1 UNK         0.3459 
    134 H134       34.2055   26.5387    7.2015 H         1 UNK         0.0616 
    135 H135       33.2147   27.7447    6.4223 H         1 UNK         0.0616 
    136 H136       31.9766   25.3775    5.1928 H         1 UNK         0.0634 
    137 H137       31.9321   26.9993    4.5494 H         1 UNK         0.0634 
@<TRIPOS>BOND
     1    1    2 1    
     2    1   72 1    
     3    1   73 1    
     4    1   74 1    
     5    2    3 2    
     6    2    4 am   BACKBONE|DICT|INTERRES
     7    4    5 1    
     8    4   75 1    
     9    5    6 1    
    10    5   35 1    
    11    5   76 1    
    12    6    7 1    
    13    6   77 1    
    14    6   78 1    
    15    7    8 1    
    16    8    9 1    
    17    8   79 1    
    18    8   80 1    
    19    9   10 ar   
    20    9   14 ar   
    21   10   11 ar   
    22   10   81 1    
    23   11   12 ar   
    24   11   71 1    
    25   12   13 ar   
    26   12   82 1    
    27   13   14 ar   
    28   13   15 1    
    29   14   83 1    
    30   15   16 1    
    31   15   84 1    
    32   15   85 1    
    33   16   17 1    
    34   17   18 1    
    35   17   86 1    
    36   17   87 1    
    37   18   19 1    
    38   18   37 1    
    39   18   88 1    
    40   19   20 am   BACKBONE|DICT|INTERRES
    41   19   89 1    
    42   20   21 2    
    43   20   22 1    
    44   22   23 1    
    45   22   24 1    
    46   22   90 1    
    47   23   91 1    
    48   23   92 1    
    49   23   93 1    
    50   24   25 am   BACKBONE|DICT|INTERRES
    51   24   94 1    
    52   25   26 2    
    53   25   27 1    
    54   27   28 1    
    55   27   29 1    
    56   27   95 1    
    57   28   96 1    
    58   28   97 1    
    59   28   98 1    
    60   29   30 am   BACKBONE|DICT|INTERRES
    61   29   99 1    
    62   30   31 2    
    63   30   32 1    
    64   32   33 1    
    65   32   34 1    
    66   32  100 1    
    67   33  101 1    
    68   33  102 1    
    69   33  103 1    
    70   34   35 am   BACKBONE|DICT|INTERRES
    71   34  104 1    
    72   35   36 2    
    73   37   38 2    
    74   37   39 am   BACKBONE|DICT|INTERRES
    75   39   40 1    
    76   39  105 1    
    77   40   41 1    
    78   40   42 1    
    79   40  106 1    
    80   41  107 1    
    81   41  108 1    
    82   41  109 1    
    83   42   43 2    
    84   42   44 am   BACKBONE|DICT|INTERRES
    85   44   45 1    
    86   44  110 1    
    87   45   46 1    
    88   45   47 1    
    89   45  111 1    
    90   46  112 1    
    91   46  113 1    
    92   46  114 1    
    93   47   48 2    
    94   47   49 am   BACKBONE|DICT|INTERRES
    95   49   50 1    
    96   49  115 1    
    97   50   51 1    
    98   50   52 1    
    99   50  116 1    
   100   51  117 1    
   101   51  118 1    
   102   51  119 1    
   103   52   53 2    
   104   52   54 am   BACKBONE|DICT|INTERRES
   105   54   55 1    
   106   54  120 1    
   107   55   56 1    
   108   55   57 1    
   109   55  121 1    
   110   56  122 1    
   111   56  123 1    
   112   56  124 1    
   113   57   58 2    
   114   57   59 am   BACKBONE|DICT|INTERRES
   115   59   60 1    
   116   59  125 1    
   117   60   61 1    
   118   60   62 1    
   119   60  126 1    
   120   61  127 1    
   121   61  128 1    
   122   61  129 1    
   123   62   63 2    
   124   62   64 am   BACKBONE|DICT|INTERRES
   125   64   65 1    
   126   64  130 1    
   127   65   66 1    
   128   65   69 1    
   129   65  131 1    
   130   66   67 am   BACKBONE|DICT|INTERRES
   131   66   68 2    
   132   67  132 1    
   133   67  133 1    
   134   69   70 1    
   135   69  134 1    
   136   69  135 1    
   137   70   71 1    
   138   71  136 1    
   139   71  137 1    
@<TRIPOS>SUBSTRUCTURE
     1 UNK         1 GROUP             0       ****    0 ROOT    
