@<TRIPOS>MOLECULE
3R136
137   139    1
SMALL
USER_CHARGES


@<TRIPOS>ATOM
      1 CA         29.6064   16.7432   -0.6835 C.3       0 UNK        -0.1979 
      2 C          29.6795   18.0288   -1.4945 C.2       0 UNK         0.4864 
      3 O          29.4125   18.0086   -2.6976 O.2       0 UNK        -0.5359 
      4 N          30.0481   19.1415   -0.8475 N.am      1 UNK        -0.4318 
      5 CA         30.1042   20.4815   -1.4400 C.3       1 UNK         0.0824 
      6 C6         31.1421   21.3779   -0.7126 C.3       12 UNK        -0.0944 
      7 S7         30.8207   21.6261    1.0681 S.3       12 UNK        -0.2672 
      8 C8         30.5839   23.4285    1.1162 C.3       12 UNK         0.0333 
      9 C9         30.1840   23.8960    2.5057 C.ar      12 UNK        -0.0807 
     10 C10        31.1171   24.5202    3.3384 C.ar      12 UNK        -0.0894 
     11 C11        30.7443   24.9659    4.6097 C.ar      12 UNK        -0.0804 
     12 C12        29.4311   24.7770    5.0510 C.ar      12 UNK        -0.0824 
     13 C13        28.4908   24.1512    4.2268 C.ar      12 UNK        -0.0762 
     14 C14        28.8727   23.7151    2.9544 C.ar      12 UNK        -0.0782 
     15 C15        27.0630   23.9413    4.7081 C.3       12 UNK         0.0230 
     16 S16        25.8871   25.0240    3.8383 S.3       12 UNK        -0.2608 
     17 C17        26.3782   26.6796    4.4336 C.3       12 UNK        -0.0989 
     18 CA         27.2915   27.4365    3.4356 C.3       5 UNK         0.0716 
     19 N          26.6961   27.5280    2.1028 N.am      5 UNK        -0.4135 
     20 C          27.3098   27.9594    0.9957 C.2       4 UNK         0.5031 
     21 O          28.4760   28.3594    0.9789 O.2       4 UNK        -0.5229 
     22 CA         26.4834   27.9124   -0.3092 C.3       4 UNK         0.0329 
     23 CB         27.2883   28.3761   -1.5384 C.3       4 UNK        -0.2001 
     24 N          25.9530   26.5739   -0.5861 N.am      4 UNK        -0.4303 
     25 C          24.9295   25.9766    0.0397 C.2       3 UNK         0.5044 
     26 O          24.2673   26.5327    0.9176 O.2       3 UNK        -0.5152 
     27 CA         24.5761   24.5279   -0.3625 C.3       3 UNK         0.0319 
     28 CB         23.1087   24.4301   -0.8150 C.3       3 UNK        -0.2001 
     29 N          25.4293   23.9494   -1.4090 N.am      3 UNK        -0.4354 
     30 C          26.7067   23.5768   -1.2538 C.2       2 UNK         0.4964 
     31 O          27.3337   23.7178   -0.2042 O.2       2 UNK        -0.5047 
     32 CA         27.4020   23.0268   -2.5137 C.3       2 UNK         0.0288 
     33 CB         27.7502   24.1799   -3.4724 C.3       2 UNK        -0.2113 
     34 N          28.6270   22.2689   -2.2377 N.am      2 UNK        -0.4145 
     35 C          28.6982   21.1213   -1.5477 C.2       1 UNK         0.5006 
     36 O          27.7169   20.5673   -1.0412 O.2       1 UNK        -0.5103 
     37 C          27.6340   28.8400    3.9688 C.2       5 UNK         0.5055 
     38 O          26.7469   29.6948    4.0280 O.2       5 UNK        -0.5220 
     39 N          28.9061   29.0436    4.3403 N.am      6 UNK        -0.4450 
     40 CA         29.4909   30.2843    4.8697 C.3       6 UNK         0.0367 
     41 CB         28.8896   30.6336    6.2473 C.3       6 UNK        -0.1929 
     42 C          29.4648   31.4789    3.8942 C.2       6 UNK         0.5070 
     43 O          29.6253   32.6191    4.3364 O.2       6 UNK        -0.5237 
     44 N          29.3037   31.2169    2.5874 N.am      7 UNK        -0.4739 
     45 CA         29.3297   32.2271    1.5260 C.3       7 UNK         0.0276 
     46 CB         29.0207   31.5667    0.1753 C.3       7 UNK        -0.1927 
     47 C          30.6818   32.9548    1.4861 C.2       7 UNK         0.5013 
     48 O          31.7231   32.2947    1.4542 O.2       7 UNK        -0.5193 
     49 N          30.6355   34.2929    1.5677 N.am      8 UNK        -0.4253 
     50 CA         31.7782   35.2140    1.6709 C.3       8 UNK         0.0242 
     51 CB         32.5595   35.2455    0.3395 C.3       8 UNK        -0.2000 
     52 C          32.7044   34.9479    2.8807 C.2       8 UNK         0.4948 
     53 O          33.8565   35.3843    2.8609 O.2       8 UNK        -0.5275 
     54 N          32.1991   34.2259    3.8966 N.am      9 UNK        -0.4246 
     55 CA         32.9227   33.7011    5.0603 C.3       9 UNK         0.0261 
     56 CB         33.3564   34.8458    6.0011 C.3       9 UNK        -0.1959 
     57 C          34.0853   32.7578    4.6789 C.2       9 UNK         0.5033 
     58 O          35.1081   32.7446    5.3659 O.2       9 UNK        -0.5390 
     59 N          33.9181   31.9867    3.5913 N.am      10 UNK        -0.4215 
     60 CA         34.9308   31.0651    3.0618 C.3       10 UNK         0.0240 
     61 CB         34.5060   30.5983    1.6601 C.3       10 UNK        -0.1982 
     62 C          35.2254   29.8502    3.9623 C.2       10 UNK         0.4970 
     63 O          36.3170   29.2877    3.8632 O.2       10 UNK        -0.4916 
     64 N          34.2584   29.4567    4.8008 N.am      11 UNK        -0.4279 
     65 CA         34.3764   28.3571    5.7696 C.3       11 UNK         0.1003 
     66 C          35.4235   28.6541    6.8775 C.2       11 UNK         0.5709 
     67 N          36.2506   27.6796    7.2312 N.am      11 UNK        -0.7358 
     68 O          35.4583   29.7415    7.4498 O.2       11 UNK        -0.4999 
     69 C69        33.0041   28.0112    6.4006 C.3       12 UNK        -0.0954 
     70 S70        31.7959   27.4407    5.1619 S.3       12 UNK        -0.2268 
     71 C71        31.7591   25.6581    5.5031 C.3       12 UNK         0.0203 
     72 H72        30.2802   15.9960   -1.1022 H         1 UNK         0.0888 
     73 H73        29.8827   16.9026    0.3587 H         1 UNK         0.0888 
     74 H74        28.5937   16.3419   -0.7079 H         1 UNK         0.0888 
     75 H75        30.2225   19.1082    0.1470 H         1 UNK         0.3017 
     76 H76        30.4573   20.3673   -2.4676 H         1 UNK         0.0873 
     77 H77        32.1292   20.9212   -0.8010 H         1 UNK         0.0745 
     78 H78        31.2351   22.3433   -1.2125 H         1 UNK         0.0745 
     79 H79        31.5050   23.9195    0.7980 H         1 UNK         0.0705 
     80 H80        29.8189   23.7192    0.3971 H         1 UNK         0.0705 
     81 H81        32.1323   24.6680    2.9956 H         1 UNK         0.1334 
     82 H82        29.1418   25.1221    6.0344 H         1 UNK         0.1417 
     83 H83        28.1471   23.2380    2.3085 H         1 UNK         0.1562 
     84 H84        26.9816   24.1049    5.7838 H         1 UNK         0.0748 
     85 H85        26.7771   22.9026    4.5359 H         1 UNK         0.0748 
     86 H86        26.8682   26.5830    5.4043 H         1 UNK         0.0940 
     87 H87        25.4629   27.2467    4.6162 H         1 UNK         0.0940 
     88 H88        28.2194   26.8711    3.3276 H         1 UNK         0.0703 
     89 H89        25.7388   27.2018    2.0135 H         1 UNK         0.3081 
     90 H90        25.6432   28.5982   -0.1813 H         1 UNK         0.0719 
     91 H91        28.1549   27.7380   -1.7167 H         1 UNK         0.0809 
     92 H92        26.6757   28.3702   -2.4401 H         1 UNK         0.0809 
     93 H93        27.6555   29.3938   -1.4089 H         1 UNK         0.0809 
     94 H94        26.4647   26.0238   -1.2591 H         1 UNK         0.2990 
     95 H95        24.6932   23.9199    0.5373 H         1 UNK         0.0690 
     96 H96        22.8259   23.3988   -1.0273 H         1 UNK         0.0788 
     97 H97        22.9231   25.0226   -1.7118 H         1 UNK         0.0788 
     98 H98        22.4325   24.7929   -0.0395 H         1 UNK         0.0788 
     99 H99        24.9985   23.8292   -2.3151 H         1 UNK         0.2993 
    100 H100       26.7047   22.3501   -3.0127 H         1 UNK         0.0949 
    101 H101       28.1956   23.8077   -4.3954 H         1 UNK         0.0767 
    102 H102       26.8618   24.7462   -3.7552 H         1 UNK         0.0767 
    103 H103       28.4533   24.8813   -3.0203 H         1 UNK         0.0767 
    104 H104       29.4801   22.6618   -2.6065 H         1 UNK         0.3013 
    105 H105       29.5610   28.2785    4.2359 H         1 UNK         0.3121 
    106 H106       30.5488   30.0755    5.0279 H         1 UNK         0.0774 
    107 H107       27.8430   30.9289    6.1696 H         1 UNK         0.0815 
    108 H108       29.4257   31.4623    6.7114 H         1 UNK         0.0815 
    109 H109       28.9515   29.7881    6.9324 H         1 UNK         0.0815 
    110 H110       29.1985   30.2543    2.2933 H         1 UNK         0.2987 
    111 H111       28.5405   32.9509    1.7409 H         1 UNK         0.0949 
    112 H112       29.7365   30.7781   -0.0618 H         1 UNK         0.0806 
    113 H113       28.0233   31.1281    0.1762 H         1 UNK         0.0806 
    114 H114       29.0540   32.2952   -0.6359 H         1 UNK         0.0806 
    115 H115       29.7261   34.7316    1.6227 H         1 UNK         0.3010 
    116 H116       31.3564   36.2073    1.8316 H         1 UNK         0.0829 
    117 H117       33.0689   34.3002    0.1483 H         1 UNK         0.0813 
    118 H118       31.8996   35.4475   -0.5040 H         1 UNK         0.0813 
    119 H119       33.3195   36.0278    0.3469 H         1 UNK         0.0813 
    120 H120       31.2368   33.9110    3.8217 H         1 UNK         0.3038 
    121 H121       32.2064   33.0846    5.6054 H         1 UNK         0.0769 
    122 H122       33.7671   34.4528    6.9320 H         1 UNK         0.0811 
    123 H123       34.1239   35.4741    5.5482 H         1 UNK         0.0811 
    124 H124       32.5129   35.4834    6.2652 H         1 UNK         0.0811 
    125 H125       33.0746   32.0942    3.0353 H         1 UNK         0.3204 
    126 H126       35.8639   31.6237    2.9624 H         1 UNK         0.0748 
    127 H127       35.2506   29.9300    1.2253 H         1 UNK         0.0771 
    128 H128       33.5572   30.0603    1.6850 H         1 UNK         0.0771 
    129 H129       34.3930   31.4424    0.9791 H         1 UNK         0.0771 
    130 H130       33.3976   29.9790    4.8234 H         1 UNK         0.2980 
    131 H131       34.7179   27.4806    5.2148 H         1 UNK         0.0545 
    132 H132       36.9244   27.8508    7.9612 H         1 UNK         0.3459 
    133 H133       36.2232   26.7802    6.7766 H         1 UNK         0.3459 
    134 H134       33.1157   27.2416    7.1668 H         1 UNK         0.0616 
    135 H135       32.5856   28.8824    6.9083 H         1 UNK         0.0616 
    136 H136       32.7531   25.2368    5.3444 H         1 UNK         0.0634 
    137 H137       31.5119   25.4915    6.5528 H         1 UNK         0.0634 
@<TRIPOS>BOND
     1    1    2 1    
     2    1   72 1    
     3    1   73 1    
     4    1   74 1    
     5    2    3 2    
     6    2    4 am   BACKBONE|DICT|INTERRES
     7    4    5 1    
     8    4   75 1    
     9    5    6 1    
    10    5   35 1    
    11    5   76 1    
    12    6    7 1    
    13    6   77 1    
    14    6   78 1    
    15    7    8 1    
    16    8    9 1    
    17    8   79 1    
    18    8   80 1    
    19    9   10 ar   
    20    9   14 ar   
    21   10   11 ar   
    22   10   81 1    
    23   11   12 ar   
    24   11   71 1    
    25   12   13 ar   
    26   12   82 1    
    27   13   14 ar   
    28   13   15 1    
    29   14   83 1    
    30   15   16 1    
    31   15   84 1    
    32   15   85 1    
    33   16   17 1    
    34   17   18 1    
    35   17   86 1    
    36   17   87 1    
    37   18   19 1    
    38   18   37 1    
    39   18   88 1    
    40   19   20 am   BACKBONE|DICT|INTERRES
    41   19   89 1    
    42   20   21 2    
    43   20   22 1    
    44   22   23 1    
    45   22   24 1    
    46   22   90 1    
    47   23   91 1    
    48   23   92 1    
    49   23   93 1    
    50   24   25 am   BACKBONE|DICT|INTERRES
    51   24   94 1    
    52   25   26 2    
    53   25   27 1    
    54   27   28 1    
    55   27   29 1    
    56   27   95 1    
    57   28   96 1    
    58   28   97 1    
    59   28   98 1    
    60   29   30 am   BACKBONE|DICT|INTERRES
    61   29   99 1    
    62   30   31 2    
    63   30   32 1    
    64   32   33 1    
    65   32   34 1    
    66   32  100 1    
    67   33  101 1    
    68   33  102 1    
    69   33  103 1    
    70   34   35 am   BACKBONE|DICT|INTERRES
    71   34  104 1    
    72   35   36 2    
    73   37   38 2    
    74   37   39 am   BACKBONE|DICT|INTERRES
    75   39   40 1    
    76   39  105 1    
    77   40   41 1    
    78   40   42 1    
    79   40  106 1    
    80   41  107 1    
    81   41  108 1    
    82   41  109 1    
    83   42   43 2    
    84   42   44 am   BACKBONE|DICT|INTERRES
    85   44   45 1    
    86   44  110 1    
    87   45   46 1    
    88   45   47 1    
    89   45  111 1    
    90   46  112 1    
    91   46  113 1    
    92   46  114 1    
    93   47   48 2    
    94   47   49 am   BACKBONE|DICT|INTERRES
    95   49   50 1    
    96   49  115 1    
    97   50   51 1    
    98   50   52 1    
    99   50  116 1    
   100   51  117 1    
   101   51  118 1    
   102   51  119 1    
   103   52   53 2    
   104   52   54 am   BACKBONE|DICT|INTERRES
   105   54   55 1    
   106   54  120 1    
   107   55   56 1    
   108   55   57 1    
   109   55  121 1    
   110   56  122 1    
   111   56  123 1    
   112   56  124 1    
   113   57   58 2    
   114   57   59 am   BACKBONE|DICT|INTERRES
   115   59   60 1    
   116   59  125 1    
   117   60   61 1    
   118   60   62 1    
   119   60  126 1    
   120   61  127 1    
   121   61  128 1    
   122   61  129 1    
   123   62   63 2    
   124   62   64 am   BACKBONE|DICT|INTERRES
   125   64   65 1    
   126   64  130 1    
   127   65   66 1    
   128   65   69 1    
   129   65  131 1    
   130   66   67 am   BACKBONE|DICT|INTERRES
   131   66   68 2    
   132   67  132 1    
   133   67  133 1    
   134   69   70 1    
   135   69  134 1    
   136   69  135 1    
   137   70   71 1    
   138   71  136 1    
   139   71  137 1    
@<TRIPOS>SUBSTRUCTURE
     1 UNK         1 GROUP             0       ****    0 ROOT    
