@<TRIPOS>MOLECULE
3R136
137   139    1
SMALL
USER_CHARGES


@<TRIPOS>ATOM
      1 CA         25.3022   19.5675   -0.5021 C.3       0 UNK        -0.1979 
      2 C          25.9705   20.9076   -0.2368 C.2       0 UNK         0.4864 
      3 O          25.4153   21.9484   -0.5931 O.2       0 UNK        -0.5359 
      4 N          27.1493   20.8962    0.4062 N.am      1 UNK        -0.4318 
      5 CA         27.9642   22.0847    0.7063 C.3       1 UNK         0.0824 
      6 C6         29.3614   21.7089    1.2775 C.3       12 UNK        -0.0944 
      7 S7         30.7348   22.6519    0.5242 S.3       12 UNK        -0.2672 
      8 C8         30.7724   24.1166    1.5979 C.3       12 UNK         0.0333 
      9 C9         31.9822   25.0029    1.3623 C.ar      12 UNK        -0.0807 
     10 C10        32.9909   25.0766    2.3235 C.ar      12 UNK        -0.0894 
     11 C11        34.0548   25.9731    2.1739 C.ar      12 UNK        -0.0804 
     12 C12        34.1100   26.7721    1.0263 C.ar      12 UNK        -0.0824 
     13 C13        33.1168   26.7020    0.0423 C.ar      12 UNK        -0.0762 
     14 C14        32.0547   25.8052    0.2210 C.ar      12 UNK        -0.0782 
     15 C15        33.2552   27.5962   -1.1949 C.3       12 UNK         0.0230 
     16 S16        31.8023   27.6657   -2.3051 S.3       12 UNK        -0.2608 
     17 C17        30.9074   29.1577   -1.7322 C.3       12 UNK        -0.0989 
     18 CA         29.7830   28.8907   -0.6898 C.3       5 UNK         0.0716 
     19 N          28.9418   27.7626   -1.1093 N.am      5 UNK        -0.4135 
     20 C          27.7451   27.3874   -0.6448 C.2       4 UNK         0.5031 
     21 O          27.1906   27.9188    0.3194 O.2       4 UNK        -0.5229 
     22 CA         27.0733   26.2246   -1.3981 C.3       4 UNK         0.0329 
     23 CB         28.0741   25.1056   -1.7546 C.3       4 UNK        -0.2001 
     24 N          25.9849   25.6485   -0.6079 N.am      4 UNK        -0.4303 
     25 C          24.6782   25.8773   -0.8007 C.2       3 UNK         0.5044 
     26 O          24.2444   26.6276   -1.6771 O.2       3 UNK        -0.5152 
     27 CA         23.6694   25.1384    0.1037 C.3       3 UNK         0.0319 
     28 CB         22.6922   24.3015   -0.7410 C.3       3 UNK        -0.2001 
     29 N          24.3220   24.2500    1.0683 N.am      3 UNK        -0.4354 
     30 C          24.5450   24.5450    2.3580 C.2       2 UNK         0.4964 
     31 O          24.1465   25.5751    2.9022 O.2       2 UNK        -0.5047 
     32 CA         25.3663   23.5354    3.1897 C.3       2 UNK         0.0288 
     33 CB         24.4335   22.6485    4.0304 C.3       2 UNK        -0.2113 
     34 N          26.2574   22.6776    2.3993 N.am      2 UNK        -0.4145 
     35 C          27.2354   23.1214    1.5952 C.2       1 UNK         0.5006 
     36 O          27.5149   24.3143    1.4893 O.2       1 UNK        -0.5103 
     37 C          30.3231   28.8617    0.7626 C.2       5 UNK         0.5055 
     38 O          31.2429   29.6258    1.0594 O.2       5 UNK        -0.5220 
     39 N          29.7524   28.0411    1.6573 N.am      6 UNK        -0.4450 
     40 CA         30.1638   27.9104    3.0606 C.3       6 UNK         0.0367 
     41 CB         29.2987   26.8538    3.7683 C.3       6 UNK        -0.1929 
     42 C          30.1039   29.2386    3.8316 C.2       6 UNK         0.5070 
     43 O          31.0689   29.5987    4.5058 O.2       6 UNK        -0.5237 
     44 N          28.9832   29.9580    3.6841 N.am      7 UNK        -0.4739 
     45 CA         28.7576   31.2675    4.3002 C.3       7 UNK         0.0276 
     46 CB         27.2597   31.6068    4.2417 C.3       7 UNK        -0.1927 
     47 C          29.5897   32.3869    3.6532 C.2       7 UNK         0.5013 
     48 O          29.9902   33.3169    4.3525 O.2       7 UNK        -0.5193 
     49 N          29.8446   32.2732    2.3416 N.am      8 UNK        -0.4253 
     50 CA         30.6525   33.2178    1.5660 C.3       8 UNK         0.0242 
     51 CB         30.4205   32.9913    0.0628 C.3       8 UNK        -0.2000 
     52 C          32.1460   33.1201    1.9129 C.2       8 UNK         0.4948 
     53 O          32.7999   34.1507    2.0758 O.2       8 UNK        -0.5275 
     54 N          32.6485   31.8853    2.0467 N.am      9 UNK        -0.4246 
     55 CA         34.0165   31.5849    2.4721 C.3       9 UNK         0.0261 
     56 CB         34.3475   30.1366    2.0771 C.3       9 UNK        -0.1959 
     57 C          34.2470   31.7842    3.9809 C.2       9 UNK         0.5033 
     58 O          35.4040   31.8749    4.3939 O.2       9 UNK        -0.5390 
     59 N          33.1592   31.8103    4.7686 N.am      10 UNK        -0.4215 
     60 CA         33.1174   31.7709    6.2366 C.3       10 UNK         0.0240 
     61 CB         33.7222   33.0502    6.8532 C.3       10 UNK        -0.1982 
     62 C          33.7475   30.4697    6.7711 C.2       10 UNK         0.4970 
     63 O          34.5851   30.5016    7.6750 O.2       10 UNK        -0.4916 
     64 N          33.3536   29.3530    6.1489 N.am      11 UNK        -0.4279 
     65 CA         33.8634   28.0027    6.3975 C.3       11 UNK         0.1003 
     66 C          33.4680   27.4553    7.7969 C.2       11 UNK         0.5709 
     67 N          34.3149   26.6366    8.4057 N.am      11 UNK        -0.7358 
     68 O          32.3904   27.7378    8.3188 O.2       11 UNK        -0.4999 
     69 C69        33.4265   27.0513    5.2520 C.3       12 UNK        -0.0954 
     70 S70        34.6416   25.7279    4.9387 S.3       12 UNK        -0.2268 
     71 C71        35.1624   26.0928    3.2235 C.3       12 UNK         0.0203 
     72 H72        24.3307   19.5294   -0.0102 H         1 UNK         0.0888 
     73 H73        25.1478   19.4328   -1.5722 H         1 UNK         0.0888 
     74 H74        25.9012   18.7330   -0.1380 H         1 UNK         0.0888 
     75 H75        27.5478   20.0092    0.6812 H         1 UNK         0.3017 
     76 H76        28.1107   22.5690   -0.2604 H         1 UNK         0.0873 
     77 H77        29.4000   21.7926    2.3657 H         1 UNK         0.0745 
     78 H78        29.5825   20.6605    1.0711 H         1 UNK         0.0745 
     79 H79        30.7160   23.8100    2.6435 H         1 UNK         0.0705 
     80 H80        29.8923   24.7205    1.3971 H         1 UNK         0.0705 
     81 H81        32.9292   24.4488    3.2011 H         1 UNK         0.1334 
     82 H82        34.9373   27.4563    0.8959 H         1 UNK         0.1417 
     83 H83        31.2676   25.7265   -0.5140 H         1 UNK         0.1562 
     84 H84        34.0995   27.2274   -1.7788 H         1 UNK         0.0748 
     85 H85        33.5190   28.6084   -0.8867 H         1 UNK         0.0748 
     86 H86        31.6191   29.9147   -1.3978 H         1 UNK         0.0940 
     87 H87        30.4499   29.5962   -2.6206 H         1 UNK         0.0940 
     88 H88        29.1304   29.7659   -0.7065 H         1 UNK         0.0703 
     89 H89        29.3255   27.2383   -1.8827 H         1 UNK         0.3081 
     90 H90        26.6781   26.6302   -2.3316 H         1 UNK         0.0719 
     91 H91        28.6735   24.8073   -0.8942 H         1 UNK         0.0809 
     92 H92        27.5601   24.2191   -2.1274 H         1 UNK         0.0809 
     93 H93        28.7634   25.4198   -2.5389 H         1 UNK         0.0809 
     94 H94        26.2746   25.1033    0.1975 H         1 UNK         0.2990 
     95 H95        23.0913   25.9024    0.6274 H         1 UNK         0.0690 
     96 H96        22.1400   24.9287   -1.4421 H         1 UNK         0.0788 
     97 H97        21.9577   23.7969   -0.1132 H         1 UNK         0.0788 
     98 H98        23.2140   23.5410   -1.3238 H         1 UNK         0.0788 
     99 H99        24.6961   23.3867    0.6847 H         1 UNK         0.2993 
    100 H100       25.9929   24.1180    3.8687 H         1 UNK         0.0949 
    101 H101       23.7760   23.2549    4.6552 H         1 UNK         0.0767 
    102 H102       23.7992   22.0216    3.4022 H         1 UNK         0.0767 
    103 H103       24.9984   21.9963    4.6969 H         1 UNK         0.0767 
    104 H104       26.0734   21.6852    2.4231 H         1 UNK         0.3013 
    105 H105       28.9283   27.5296    1.3647 H         1 UNK         0.3121 
    106 H106       31.2009   27.5694    3.0648 H         1 UNK         0.0774 
    107 H107       29.5916   26.7483    4.8139 H         1 UNK         0.0815 
    108 H108       28.2401   27.1161    3.7504 H         1 UNK         0.0815 
    109 H109       29.4006   25.8733    3.3099 H         1 UNK         0.0815 
    110 H110       28.2426   29.5840    3.1074 H         1 UNK         0.2987 
    111 H111       29.0529   31.2057    5.3504 H         1 UNK         0.0949 
    112 H112       26.8965   31.6665    3.2149 H         1 UNK         0.0806 
    113 H113       26.6631   30.8604    4.7667 H         1 UNK         0.0806 
    114 H114       27.0595   32.5695    4.7146 H         1 UNK         0.0806 
    115 H115       29.5068   31.4534    1.8605 H         1 UNK         0.3010 
    116 H116       30.3196   34.2290    1.8112 H         1 UNK         0.0829 
    117 H117       30.9846   33.7134   -0.5292 H         1 UNK         0.0813 
    118 H118       30.7362   31.9973   -0.2532 H         1 UNK         0.0813 
    119 H119       29.3692   33.1101   -0.1995 H         1 UNK         0.0813 
    120 H120       32.0578   31.0845    1.8240 H         1 UNK         0.3038 
    121 H121       34.7002   32.2515    1.9424 H         1 UNK         0.0769 
    122 H122       35.3660   29.8716    2.3640 H         1 UNK         0.0811 
    123 H123       34.2656   29.9954    0.9999 H         1 UNK         0.0811 
    124 H124       33.6750   29.4251    2.5589 H         1 UNK         0.0811 
    125 H125       32.2657   31.6839    4.3120 H         1 UNK         0.3204 
    126 H126       32.0621   31.7380    6.5120 H         1 UNK         0.0748 
    127 H127       33.5813   33.0640    7.9346 H         1 UNK         0.0771 
    128 H128       34.7934   33.1279    6.6654 H         1 UNK         0.0771 
    129 H129       33.2455   33.9448    6.4523 H         1 UNK         0.0771 
    130 H130       32.5961   29.4248    5.4725 H         1 UNK         0.2980 
    131 H131       34.9515   28.0939    6.3736 H         1 UNK         0.0545 
    132 H132       34.0720   26.2603    9.3086 H         1 UNK         0.3459 
    133 H133       35.1851   26.3745    7.9692 H         1 UNK         0.3459 
    134 H134       32.4497   26.6049    5.4485 H         1 UNK         0.0616 
    135 H135       33.3041   27.6146    4.3259 H         1 UNK         0.0616 
    136 H136       35.5899   27.0968    3.2052 H         1 UNK         0.0634 
    137 H137       35.9670   25.4077    2.9543 H         1 UNK         0.0634 
@<TRIPOS>BOND
     1    1    2 1    
     2    1   72 1    
     3    1   73 1    
     4    1   74 1    
     5    2    3 2    
     6    2    4 am   BACKBONE|DICT|INTERRES
     7    4    5 1    
     8    4   75 1    
     9    5    6 1    
    10    5   35 1    
    11    5   76 1    
    12    6    7 1    
    13    6   77 1    
    14    6   78 1    
    15    7    8 1    
    16    8    9 1    
    17    8   79 1    
    18    8   80 1    
    19    9   10 ar   
    20    9   14 ar   
    21   10   11 ar   
    22   10   81 1    
    23   11   12 ar   
    24   11   71 1    
    25   12   13 ar   
    26   12   82 1    
    27   13   14 ar   
    28   13   15 1    
    29   14   83 1    
    30   15   16 1    
    31   15   84 1    
    32   15   85 1    
    33   16   17 1    
    34   17   18 1    
    35   17   86 1    
    36   17   87 1    
    37   18   19 1    
    38   18   37 1    
    39   18   88 1    
    40   19   20 am   BACKBONE|DICT|INTERRES
    41   19   89 1    
    42   20   21 2    
    43   20   22 1    
    44   22   23 1    
    45   22   24 1    
    46   22   90 1    
    47   23   91 1    
    48   23   92 1    
    49   23   93 1    
    50   24   25 am   BACKBONE|DICT|INTERRES
    51   24   94 1    
    52   25   26 2    
    53   25   27 1    
    54   27   28 1    
    55   27   29 1    
    56   27   95 1    
    57   28   96 1    
    58   28   97 1    
    59   28   98 1    
    60   29   30 am   BACKBONE|DICT|INTERRES
    61   29   99 1    
    62   30   31 2    
    63   30   32 1    
    64   32   33 1    
    65   32   34 1    
    66   32  100 1    
    67   33  101 1    
    68   33  102 1    
    69   33  103 1    
    70   34   35 am   BACKBONE|DICT|INTERRES
    71   34  104 1    
    72   35   36 2    
    73   37   38 2    
    74   37   39 am   BACKBONE|DICT|INTERRES
    75   39   40 1    
    76   39  105 1    
    77   40   41 1    
    78   40   42 1    
    79   40  106 1    
    80   41  107 1    
    81   41  108 1    
    82   41  109 1    
    83   42   43 2    
    84   42   44 am   BACKBONE|DICT|INTERRES
    85   44   45 1    
    86   44  110 1    
    87   45   46 1    
    88   45   47 1    
    89   45  111 1    
    90   46  112 1    
    91   46  113 1    
    92   46  114 1    
    93   47   48 2    
    94   47   49 am   BACKBONE|DICT|INTERRES
    95   49   50 1    
    96   49  115 1    
    97   50   51 1    
    98   50   52 1    
    99   50  116 1    
   100   51  117 1    
   101   51  118 1    
   102   51  119 1    
   103   52   53 2    
   104   52   54 am   BACKBONE|DICT|INTERRES
   105   54   55 1    
   106   54  120 1    
   107   55   56 1    
   108   55   57 1    
   109   55  121 1    
   110   56  122 1    
   111   56  123 1    
   112   56  124 1    
   113   57   58 2    
   114   57   59 am   BACKBONE|DICT|INTERRES
   115   59   60 1    
   116   59  125 1    
   117   60   61 1    
   118   60   62 1    
   119   60  126 1    
   120   61  127 1    
   121   61  128 1    
   122   61  129 1    
   123   62   63 2    
   124   62   64 am   BACKBONE|DICT|INTERRES
   125   64   65 1    
   126   64  130 1    
   127   65   66 1    
   128   65   69 1    
   129   65  131 1    
   130   66   67 am   BACKBONE|DICT|INTERRES
   131   66   68 2    
   132   67  132 1    
   133   67  133 1    
   134   69   70 1    
   135   69  134 1    
   136   69  135 1    
   137   70   71 1    
   138   71  136 1    
   139   71  137 1    
@<TRIPOS>SUBSTRUCTURE
     1 UNK         1 GROUP             0       ****    0 ROOT    
