@<TRIPOS>MOLECULE
3R136
137   139    1
SMALL
USER_CHARGES


@<TRIPOS>ATOM
      1 CA         25.2346   20.7399    2.4984 C.3       0 UNK        -0.1979 
      2 C          25.8987   21.8538    1.7036 C.2       0 UNK         0.4864 
      3 O          25.3617   22.2741    0.6777 O.2       0 UNK        -0.5359 
      4 N          27.0543   22.3441    2.1780 N.am      1 UNK        -0.4318 
      5 CA         27.8822   23.3825    1.5439 C.3       1 UNK         0.0824 
      6 C6         29.1377   23.7182    2.3830 C.3       12 UNK        -0.0944 
      7 S7         30.2164   22.2763    2.6783 S.3       12 UNK        -0.2672 
      8 C8         31.5451   22.5171    1.4504 C.3       12 UNK         0.0333 
      9 C9         32.2552   23.8589    1.5937 C.ar      12 UNK        -0.0807 
     10 C10        32.8656   24.2168    2.8007 C.ar      12 UNK        -0.0894 
     11 C11        33.4879   25.4608    2.9433 C.ar      12 UNK        -0.0804 
     12 C12        33.5002   26.3466    1.8593 C.ar      12 UNK        -0.0824 
     13 C13        32.9196   25.9901    0.6395 C.ar      12 UNK        -0.0762 
     14 C14        32.2951   24.7464    0.5137 C.ar      12 UNK        -0.0782 
     15 C15        32.9863   26.9423   -0.5458 C.3       12 UNK         0.0230 
     16 S16        31.6949   28.2195   -0.4667 S.3       12 UNK        -0.2608 
     17 C17        30.1834   27.2308   -0.7333 C.3       12 UNK        -0.0989 
     18 CA         28.9725   28.0608   -1.2401 C.3       5 UNK         0.0716 
     19 N          27.9492   27.1585   -1.7615 N.am      5 UNK        -0.4135 
     20 C          27.5407   27.0770   -3.0304 C.2       4 UNK         0.5031 
     21 O          27.9524   27.8117   -3.9296 O.2       4 UNK        -0.5229 
     22 CA         26.5213   25.9809   -3.3792 C.3       4 UNK         0.0329 
     23 CB         27.2522   24.7036   -3.8269 C.3       4 UNK        -0.2001 
     24 N          25.6186   25.6458   -2.2709 N.am      4 UNK        -0.4303 
     25 C          24.2797   25.6346   -2.3624 C.2       3 UNK         0.5044 
     26 O          23.6603   25.9794   -3.3701 O.2       3 UNK        -0.5152 
     27 CA         23.4757   25.1287   -1.1485 C.3       3 UNK         0.0319 
     28 CB         23.0123   23.6817   -1.3826 C.3       3 UNK        -0.2001 
     29 N          24.2167   25.1945    0.1116 N.am      3 UNK        -0.4354 
     30 C          24.4382   26.3277    0.7951 C.2       2 UNK         0.4964 
     31 O          23.9597   27.4154    0.4723 O.2       2 UNK        -0.5047 
     32 CA         25.3362   26.2501    2.0472 C.3       2 UNK         0.0288 
     33 CB         24.4869   26.3439    3.3255 C.3       2 UNK        -0.2113 
     34 N          26.1853   25.0577    2.1328 N.am      2 UNK        -0.4145 
     35 C          27.1131   24.6830    1.2393 C.2       1 UNK         0.5006 
     36 O          27.3474   25.2926    0.1952 O.2       1 UNK        -0.5103 
     37 C          28.3595   28.9159   -0.1144 C.2       5 UNK         0.5055 
     38 O          27.2634   28.6252    0.3676 O.2       5 UNK        -0.5220 
     39 N          29.1154   29.9278    0.3310 N.am      6 UNK        -0.4450 
     40 CA         28.8614   30.6737    1.5680 C.3       6 UNK         0.0367 
     41 CB         29.6143   32.0126    1.5101 C.3       6 UNK        -0.1929 
     42 C          29.2404   29.8718    2.8339 C.2       6 UNK         0.5070 
     43 O          28.9179   30.3089    3.9394 O.2       6 UNK        -0.5237 
     44 N          29.9058   28.7179    2.6540 N.am      7 UNK        -0.4739 
     45 CA         30.2686   27.7223    3.6654 C.3       7 UNK         0.0276 
     46 CB         29.0003   27.0286    4.2125 C.3       7 UNK        -0.1927 
     47 C          31.1781   28.3320    4.7433 C.2       7 UNK         0.5013 
     48 O          32.2781   28.7754    4.4105 O.2       7 UNK        -0.5193 
     49 N          30.7147   28.3834    5.9993 N.am      8 UNK        -0.4253 
     50 CA         31.4382   28.9511    7.1419 C.3       8 UNK         0.0242 
     51 CB         30.5827   28.8072    8.4103 C.3       8 UNK        -0.2000 
     52 C          31.8762   30.4150    6.9509 C.2       8 UNK         0.4948 
     53 O          32.9178   30.7985    7.4812 O.2       8 UNK        -0.5275 
     54 N          31.1161   31.1930    6.1666 N.am      9 UNK        -0.4246 
     55 CA         31.4728   32.5632    5.7928 C.3       9 UNK         0.0261 
     56 CB         30.2117   33.3134    5.3383 C.3       9 UNK        -0.1959 
     57 C          32.5867   32.6417    4.7291 C.2       9 UNK         0.5033 
     58 O          33.2075   33.6990    4.6088 O.2       9 UNK        -0.5390 
     59 N          32.8356   31.5496    3.9897 N.am      10 UNK        -0.4215 
     60 CA         33.9559   31.4272    3.0559 C.3       10 UNK         0.0240 
     61 CB         33.5651   30.5483    1.8537 C.3       10 UNK        -0.1982 
     62 C          35.2004   30.8722    3.7641 C.2       10 UNK         0.4970 
     63 O          36.2785   31.4477    3.6092 O.2       10 UNK        -0.4916 
     64 N          35.0400   29.7757    4.5203 N.am      11 UNK        -0.4279 
     65 CA         36.1406   29.1337    5.2628 C.3       11 UNK         0.1003 
     66 C          36.6164   29.9148    6.5202 C.2       11 UNK         0.5709 
     67 N          35.7894   30.7337    7.1568 N.am      11 UNK        -0.7358 
     68 O          37.7711   29.7828    6.9195 O.2       11 UNK        -0.4999 
     69 C69        35.8460   27.6501    5.6064 C.3       12 UNK        -0.0954 
     70 S70        35.7495   26.6141    4.1081 S.3       12 UNK        -0.2268 
     71 C71        34.1026   25.8556    4.2819 C.3       12 UNK         0.0203 
     72 H72        24.2408   21.0502    2.8197 H         1 UNK         0.0888 
     73 H73        25.1302   19.8498    1.8787 H         1 UNK         0.0888 
     74 H74        25.8100   20.4713    3.3841 H         1 UNK         0.0888 
     75 H75        27.4486   21.9415    3.0168 H         1 UNK         0.3017 
     76 H76        28.2108   22.9814    0.5829 H         1 UNK         0.0873 
     77 H77        28.8458   24.1059    3.3605 H         1 UNK         0.0745 
     78 H78        29.7124   24.5159    1.9101 H         1 UNK         0.0745 
     79 H79        31.1184   22.4064    0.4522 H         1 UNK         0.0705 
     80 H80        32.2771   21.7162    1.5621 H         1 UNK         0.0705 
     81 H81        32.8350   23.5299    3.6356 H         1 UNK         0.1334 
     82 H82        33.9695   27.3150    1.9631 H         1 UNK         0.1417 
     83 H83        31.8372   24.4714   -0.4268 H         1 UNK         0.1562 
     84 H84        32.9062   26.3967   -1.4873 H         1 UNK         0.0748 
     85 H85        33.9610   27.4323   -0.5633 H         1 UNK         0.0748 
     86 H86        29.9372   26.6862    0.1811 H         1 UNK         0.0940 
     87 H87        30.4248   26.4661   -1.4738 H         1 UNK         0.0940 
     88 H88        29.3062   28.7404   -2.0272 H         1 UNK         0.0703 
     89 H89        27.5528   26.5368   -1.0595 H         1 UNK         0.3081 
     90 H90        25.9513   26.3555   -4.2320 H         1 UNK         0.0719 
     91 H91        27.9345   24.9106   -4.6527 H         1 UNK         0.0809 
     92 H92        27.8402   24.2705   -3.0164 H         1 UNK         0.0809 
     93 H93        26.5483   23.9460   -4.1717 H         1 UNK         0.0809 
     94 H94        26.0473   25.3680   -1.3951 H         1 UNK         0.2990 
     95 H95        22.5862   25.7562   -1.0597 H         1 UNK         0.0690 
     96 H96        22.4072   23.3182   -0.5519 H         1 UNK         0.0788 
     97 H97        23.8573   23.0027   -1.5042 H         1 UNK         0.0788 
     98 H98        22.4029   23.6077   -2.2844 H         1 UNK         0.0788 
     99 H99        24.6343   24.3295    0.4375 H         1 UNK         0.2993 
    100 H100       25.9985   27.1165    2.0178 H         1 UNK         0.0949 
    101 H101       23.8643   27.2398    3.3166 H         1 UNK         0.0767 
    102 H102       23.8220   25.4856    3.4313 H         1 UNK         0.0767 
    103 H103       25.1137   26.3983    4.2159 H         1 UNK         0.0767 
    104 H104       26.0486   24.4689    2.9414 H         1 UNK         0.3013 
    105 H105       30.0104   30.0835   -0.1144 H         1 UNK         0.3121 
    106 H106       27.7922   30.8884    1.6259 H         1 UNK         0.0774 
    107 H107       29.2736   32.6801    2.3002 H         1 UNK         0.0815 
    108 H108       30.6891   31.8837    1.6317 H         1 UNK         0.0815 
    109 H109       29.4405   32.5294    0.5662 H         1 UNK         0.0815 
    110 H110       30.1961   28.4976    1.7122 H         1 UNK         0.2987 
    111 H111       30.8674   26.9649    3.1568 H         1 UNK         0.0949 
    112 H112       29.2558   26.2190    4.8975 H         1 UNK         0.0806 
    113 H113       28.4213   26.5901    3.4005 H         1 UNK         0.0806 
    114 H114       28.3406   27.7196    4.7385 H         1 UNK         0.0806 
    115 H115       29.7888   28.0238    6.1805 H         1 UNK         0.3010 
    116 H116       32.3473   28.3602    7.2732 H         1 UNK         0.0829 
    117 H117       29.6399   29.3493    8.3253 H         1 UNK         0.0813 
    118 H118       30.3533   27.7622    8.6195 H         1 UNK         0.0813 
    119 H119       31.1078   29.2016    9.2817 H         1 UNK         0.0813 
    120 H120       30.2879   30.7995    5.7344 H         1 UNK         0.3038 
    121 H121       31.8528   33.0711    6.6821 H         1 UNK         0.0769 
    122 H122       30.4496   34.3297    5.0209 H         1 UNK         0.0811 
    123 H123       29.4854   33.3893    6.1476 H         1 UNK         0.0811 
    124 H124       29.7258   32.8135    4.5033 H         1 UNK         0.0811 
    125 H125       32.3310   30.6912    4.1899 H         1 UNK         0.3204 
    126 H126       34.2135   32.4136    2.6638 H         1 UNK         0.0748 
    127 H127       34.4193   30.3852    1.1952 H         1 UNK         0.0771 
    128 H128       33.2000   29.5680    2.1561 H         1 UNK         0.0771 
    129 H129       32.7892   31.0196    1.2529 H         1 UNK         0.0771 
    130 H130       34.1248   29.3400    4.5796 H         1 UNK         0.2980 
    131 H131       37.0049   29.1278    4.5950 H         1 UNK         0.0545 
    132 H132       34.8052   30.7904    6.9198 H         1 UNK         0.3459 
    133 H133       36.1291   31.2329    7.9627 H         1 UNK         0.3459 
    134 H134       36.6405   27.2315    6.2272 H         1 UNK         0.0616 
    135 H135       34.9293   27.5701    6.1928 H         1 UNK         0.0616 
    136 H136       33.4256   26.5413    4.7844 H         1 UNK         0.0634 
    137 H137       34.1965   24.9873    4.9357 H         1 UNK         0.0634 
@<TRIPOS>BOND
     1    1    2 1    
     2    1   72 1    
     3    1   73 1    
     4    1   74 1    
     5    2    3 2    
     6    2    4 am   BACKBONE|DICT|INTERRES
     7    4    5 1    
     8    4   75 1    
     9    5    6 1    
    10    5   35 1    
    11    5   76 1    
    12    6    7 1    
    13    6   77 1    
    14    6   78 1    
    15    7    8 1    
    16    8    9 1    
    17    8   79 1    
    18    8   80 1    
    19    9   10 ar   
    20    9   14 ar   
    21   10   11 ar   
    22   10   81 1    
    23   11   12 ar   
    24   11   71 1    
    25   12   13 ar   
    26   12   82 1    
    27   13   14 ar   
    28   13   15 1    
    29   14   83 1    
    30   15   16 1    
    31   15   84 1    
    32   15   85 1    
    33   16   17 1    
    34   17   18 1    
    35   17   86 1    
    36   17   87 1    
    37   18   19 1    
    38   18   37 1    
    39   18   88 1    
    40   19   20 am   BACKBONE|DICT|INTERRES
    41   19   89 1    
    42   20   21 2    
    43   20   22 1    
    44   22   23 1    
    45   22   24 1    
    46   22   90 1    
    47   23   91 1    
    48   23   92 1    
    49   23   93 1    
    50   24   25 am   BACKBONE|DICT|INTERRES
    51   24   94 1    
    52   25   26 2    
    53   25   27 1    
    54   27   28 1    
    55   27   29 1    
    56   27   95 1    
    57   28   96 1    
    58   28   97 1    
    59   28   98 1    
    60   29   30 am   BACKBONE|DICT|INTERRES
    61   29   99 1    
    62   30   31 2    
    63   30   32 1    
    64   32   33 1    
    65   32   34 1    
    66   32  100 1    
    67   33  101 1    
    68   33  102 1    
    69   33  103 1    
    70   34   35 am   BACKBONE|DICT|INTERRES
    71   34  104 1    
    72   35   36 2    
    73   37   38 2    
    74   37   39 am   BACKBONE|DICT|INTERRES
    75   39   40 1    
    76   39  105 1    
    77   40   41 1    
    78   40   42 1    
    79   40  106 1    
    80   41  107 1    
    81   41  108 1    
    82   41  109 1    
    83   42   43 2    
    84   42   44 am   BACKBONE|DICT|INTERRES
    85   44   45 1    
    86   44  110 1    
    87   45   46 1    
    88   45   47 1    
    89   45  111 1    
    90   46  112 1    
    91   46  113 1    
    92   46  114 1    
    93   47   48 2    
    94   47   49 am   BACKBONE|DICT|INTERRES
    95   49   50 1    
    96   49  115 1    
    97   50   51 1    
    98   50   52 1    
    99   50  116 1    
   100   51  117 1    
   101   51  118 1    
   102   51  119 1    
   103   52   53 2    
   104   52   54 am   BACKBONE|DICT|INTERRES
   105   54   55 1    
   106   54  120 1    
   107   55   56 1    
   108   55   57 1    
   109   55  121 1    
   110   56  122 1    
   111   56  123 1    
   112   56  124 1    
   113   57   58 2    
   114   57   59 am   BACKBONE|DICT|INTERRES
   115   59   60 1    
   116   59  125 1    
   117   60   61 1    
   118   60   62 1    
   119   60  126 1    
   120   61  127 1    
   121   61  128 1    
   122   61  129 1    
   123   62   63 2    
   124   62   64 am   BACKBONE|DICT|INTERRES
   125   64   65 1    
   126   64  130 1    
   127   65   66 1    
   128   65   69 1    
   129   65  131 1    
   130   66   67 am   BACKBONE|DICT|INTERRES
   131   66   68 2    
   132   67  132 1    
   133   67  133 1    
   134   69   70 1    
   135   69  134 1    
   136   69  135 1    
   137   70   71 1    
   138   71  136 1    
   139   71  137 1    
@<TRIPOS>SUBSTRUCTURE
     1 UNK         1 GROUP             0       ****    0 ROOT    
