@<TRIPOS>MOLECULE
3R136
137   139    1
SMALL
USER_CHARGES


@<TRIPOS>ATOM
      1 CA         28.6318   21.9736   -0.8467 C.3       0 UNK        -0.1979 
      2 C          28.2496   20.8009    0.0539 C.2       0 UNK         0.4864 
      3 O          28.1420   19.6797   -0.4401 O.2       0 UNK        -0.5359 
      4 N          28.0488   20.9853    1.3673 N.am      1 UNK        -0.4318 
      5 CA         28.0269   22.2508    2.1059 C.3       1 UNK         0.0824 
      6 C6         28.2646   22.0039    3.6173 C.3       12 UNK        -0.0944 
      7 S7         28.8551   23.4873    4.5026 S.3       12 UNK        -0.2672 
      8 C8         30.5731   23.0430    4.9321 C.3       12 UNK         0.0333 
      9 C9         31.6067   23.6729    4.0034 C.ar      12 UNK        -0.0807 
     10 C10        32.5577   24.5576    4.5208 C.ar      12 UNK        -0.0894 
     11 C11        33.5627   25.0821    3.7035 C.ar      12 UNK        -0.0804 
     12 C12        33.5871   24.7528    2.3452 C.ar      12 UNK        -0.0824 
     13 C13        32.6280   23.8889    1.8038 C.ar      12 UNK        -0.0762 
     14 C14        31.6591   23.3334    2.6471 C.ar      12 UNK        -0.0782 
     15 C15        32.6773   23.4922    0.3299 C.3       12 UNK         0.0230 
     16 S16        32.8720   24.9096   -0.8061 S.3       12 UNK        -0.2608 
     17 C17        31.1564   25.4615   -1.1046 C.3       12 UNK        -0.0989 
     18 CA         30.7685   26.6731   -0.2135 C.3       5 UNK         0.0716 
     19 N          29.9494   27.6541   -0.9259 N.am      5 UNK        -0.4135 
     20 C          30.0019   28.9757   -0.7062 C.2       4 UNK         0.5031 
     21 O          30.7654   29.4972    0.1048 O.2       4 UNK        -0.5229 
     22 CA         29.0371   29.8697   -1.5029 C.3       4 UNK         0.0329 
     23 CB         29.6732   30.2930   -2.8365 C.3       4 UNK        -0.2001 
     24 N          27.7415   29.2387   -1.7570 N.am      4 UNK        -0.4303 
     25 C          26.8328   28.9615   -0.8118 C.2       3 UNK         0.5044 
     26 O          26.9706   29.2519    0.3772 O.2       3 UNK        -0.5152 
     27 CA         25.5461   28.2377   -1.2547 C.3       3 UNK         0.0319 
     28 CB         25.4735   27.9237   -2.7679 C.3       3 UNK        -0.2001 
     29 N          25.3159   27.0205   -0.4689 N.am      3 UNK        -0.4354 
     30 C          26.1468   25.9751   -0.3479 C.2       2 UNK         0.4964 
     31 O          27.2422   25.8843   -0.9095 O.2       2 UNK        -0.5047 
     32 CA         25.6263   24.8064    0.4951 C.3       2 UNK         0.0288 
     33 CB         24.7214   23.9141   -0.3847 C.3       2 UNK        -0.2113 
     34 N          26.7642   24.0531    1.0214 N.am      2 UNK        -0.4145 
     35 C          26.7007   22.9805    1.8193 C.2       1 UNK         0.5006 
     36 O          25.6522   22.5260    2.2838 O.2       1 UNK        -0.5103 
     37 C          30.0466   26.2854    1.0876 C.2       5 UNK         0.5055 
     38 O          29.4685   25.2018    1.1831 O.2       5 UNK        -0.5220 
     39 N          30.0578   27.2116    2.0479 N.am      6 UNK        -0.4450 
     40 CA         29.5398   27.0474    3.3954 C.3       6 UNK         0.0367 
     41 CB         28.0106   27.2218    3.4083 C.3       6 UNK        -0.1929 
     42 C          30.2231   28.0859    4.2824 C.2       6 UNK         0.5070 
     43 O          30.5396   29.1785    3.8032 O.2       6 UNK        -0.5237 
     44 N          30.4073   27.7521    5.5657 N.am      7 UNK        -0.4739 
     45 CA         31.0684   28.6061    6.5606 C.3       7 UNK         0.0276 
     46 CB         31.2129   27.8377    7.8828 C.3       7 UNK        -0.1927 
     47 C          30.3611   29.9535    6.7838 C.2       7 UNK         0.5013 
     48 O          31.0342   30.9667    6.9708 O.2       7 UNK        -0.5193 
     49 N          29.0240   29.9544    6.6833 N.am      8 UNK        -0.4253 
     50 CA         28.1739   31.1486    6.7363 C.3       8 UNK         0.0242 
     51 CB         26.6999   30.7141    6.7822 C.3       8 UNK        -0.2000 
     52 C          28.4061   32.1342    5.5736 C.2       8 UNK         0.4948 
     53 O          28.1283   33.3229    5.7342 O.2       8 UNK        -0.5275 
     54 N          28.9199   31.6343    4.4414 N.am      9 UNK        -0.4246 
     55 CA         29.2984   32.4163    3.2633 C.3       9 UNK         0.0261 
     56 CB         28.7625   31.6980    2.0131 C.3       9 UNK        -0.1959 
     57 C          30.8232   32.6299    3.1737 C.2       9 UNK         0.5033 
     58 O          31.2888   33.1645    2.1667 O.2       9 UNK        -0.5390 
     59 N          31.5701   32.2152    4.2108 N.am      10 UNK        -0.4215 
     60 CA         33.0332   32.2377    4.3323 C.3       10 UNK         0.0240 
     61 CB         33.5790   33.6822    4.3005 C.3       10 UNK        -0.1982 
     62 C          33.7630   31.2939    3.3525 C.2       10 UNK         0.4970 
     63 O          34.9443   31.5138    3.0772 O.2       10 UNK        -0.4916 
     64 N          33.0708   30.2402    2.8962 N.am      11 UNK        -0.4279 
     65 CA         33.5711   29.1484    2.0434 C.3       11 UNK         0.1003 
     66 C          33.9776   29.5818    0.6013 C.2       11 UNK         0.5709 
     67 N          34.3483   28.6316   -0.2493 N.am      11 UNK        -0.7358 
     68 O          33.9535   30.7524    0.2260 O.2       11 UNK        -0.4999 
     69 C69        34.6801   28.3070    2.7408 C.3       12 UNK        -0.0954 
     70 S70        34.1849   27.6998    4.3905 S.3       12 UNK        -0.2268 
     71 C71        34.6558   25.9477    4.3119 C.3       12 UNK         0.0203 
     72 H72        29.3658   22.6259   -0.3793 H         1 UNK         0.0888 
     73 H73        29.0736   21.6076   -1.7733 H         1 UNK         0.0888 
     74 H74        27.7529   22.5600   -1.1110 H         1 UNK         0.0888 
     75 H75        27.7777   20.1800    1.9132 H         1 UNK         0.3017 
     76 H76        28.8446   22.8671    1.7452 H         1 UNK         0.0873 
     77 H77        28.9982   21.2075    3.7465 H         1 UNK         0.0745 
     78 H78        27.3613   21.6389    4.1101 H         1 UNK         0.0745 
     79 H79        30.7087   21.9614    4.9444 H         1 UNK         0.0705 
     80 H80        30.7465   23.3683    5.9590 H         1 UNK         0.0705 
     81 H81        32.5433   24.8114    5.5721 H         1 UNK         0.1334 
     82 H82        34.3688   25.1476    1.7116 H         1 UNK         0.1417 
     83 H83        30.9499   22.6245    2.2498 H         1 UNK         0.1562 
     84 H84        31.7932   22.9203    0.0461 H         1 UNK         0.0748 
     85 H85        33.5277   22.8238    0.1898 H         1 UNK         0.0748 
     86 H86        30.4577   24.6281   -1.0291 H         1 UNK         0.0940 
     87 H87        31.1230   25.7544   -2.1552 H         1 UNK         0.0940 
     88 H88        31.6975   27.1670    0.0787 H         1 UNK         0.0703 
     89 H89        29.2182   27.2828   -1.5170 H         1 UNK         0.3081 
     90 H90        28.8605   30.7704   -0.9116 H         1 UNK         0.0719 
     91 H91        30.6321   30.7863   -2.6696 H         1 UNK         0.0809 
     92 H92        29.8562   29.4381   -3.4887 H         1 UNK         0.0809 
     93 H93        29.0381   30.9975   -3.3740 H         1 UNK         0.0809 
     94 H94        27.5417   28.9665   -2.7086 H         1 UNK         0.2990 
     95 H95        24.7247   28.9163   -1.0202 H         1 UNK         0.0690 
     96 H96        24.5263   27.4462   -3.0195 H         1 UNK         0.0788 
     97 H97        26.2709   27.2532   -3.0909 H         1 UNK         0.0788 
     98 H98        25.5346   28.8335   -3.3667 H         1 UNK         0.0788 
     99 H99        24.4467   27.0001    0.0461 H         1 UNK         0.2993 
    100 H100       25.0557   25.2010    1.3382 H         1 UNK         0.0949 
    101 H101       23.9244   24.4965   -0.8491 H         1 UNK         0.0767 
    102 H102       25.2864   23.4401   -1.1882 H         1 UNK         0.0767 
    103 H103       24.2357   23.1273    0.1916 H         1 UNK         0.0767 
    104 H104       27.6742   24.4223    0.7471 H         1 UNK         0.3013 
    105 H105       30.4930   28.1116    1.8709 H         1 UNK         0.3121 
    106 H106       29.8101   26.0541    3.7532 H         1 UNK         0.0774 
    107 H107       27.5210   26.4635    2.7974 H         1 UNK         0.0815 
    108 H108       27.6124   27.1271    4.4189 H         1 UNK         0.0815 
    109 H109       27.7153   28.1998    3.0249 H         1 UNK         0.0815 
    110 H110       30.1086   26.8393    5.8790 H         1 UNK         0.2987 
    111 H111       32.0693   28.8312    6.1867 H         1 UNK         0.0949 
    112 H112       31.8062   26.9324    7.7514 H         1 UNK         0.0806 
    113 H113       31.7180   28.4465    8.6342 H         1 UNK         0.0806 
    114 H114       30.2442   27.5499    8.2931 H         1 UNK         0.0806 
    115 H115       28.5618   29.0715    6.5215 H         1 UNK         0.3010 
    116 H116       28.4053   31.6796    7.6622 H         1 UNK         0.0829 
    117 H117       26.4969   30.0858    7.6497 H         1 UNK         0.0813 
    118 H118       26.0398   31.5801    6.8512 H         1 UNK         0.0813 
    119 H119       26.4143   30.1579    5.8882 H         1 UNK         0.0813 
    120 H120       29.1590   30.6497    4.4017 H         1 UNK         0.3038 
    121 H121       28.8415   33.4071    3.3043 H         1 UNK         0.0769 
    122 H122       29.0090   32.2478    1.1042 H         1 UNK         0.0811 
    123 H123       27.6776   31.5983    2.0455 H         1 UNK         0.0811 
    124 H124       29.1834   30.6971    1.9139 H         1 UNK         0.0811 
    125 H125       31.0900   31.8017    5.0022 H         1 UNK         0.3204 
    126 H126       33.2445   31.8381    5.3253 H         1 UNK         0.0748 
    127 H127       34.6356   33.7073    4.5696 H         1 UNK         0.0771 
    128 H128       33.4877   34.1287    3.3100 H         1 UNK         0.0771 
    129 H129       33.0516   34.3216    5.0083 H         1 UNK         0.0771 
    130 H130       32.1047   30.1332    3.1893 H         1 UNK         0.2980 
    131 H131       32.7080   28.4973    1.9090 H         1 UNK         0.0545 
    132 H132       34.6075   28.8974   -1.1859 H         1 UNK         0.3459 
    133 H133       34.3691   27.6610    0.0174 H         1 UNK         0.3459 
    134 H134       34.9531   27.4528    2.1216 H         1 UNK         0.0616 
    135 H135       35.5924   28.8939    2.8565 H         1 UNK         0.0616 
    136 H136       35.5912   25.8358    3.7615 H         1 UNK         0.0634 
    137 H137       34.8658   25.6048    5.3262 H         1 UNK         0.0634 
@<TRIPOS>BOND
     1    1    2 1    
     2    1   72 1    
     3    1   73 1    
     4    1   74 1    
     5    2    3 2    
     6    2    4 am   BACKBONE|DICT|INTERRES
     7    4    5 1    
     8    4   75 1    
     9    5    6 1    
    10    5   35 1    
    11    5   76 1    
    12    6    7 1    
    13    6   77 1    
    14    6   78 1    
    15    7    8 1    
    16    8    9 1    
    17    8   79 1    
    18    8   80 1    
    19    9   10 ar   
    20    9   14 ar   
    21   10   11 ar   
    22   10   81 1    
    23   11   12 ar   
    24   11   71 1    
    25   12   13 ar   
    26   12   82 1    
    27   13   14 ar   
    28   13   15 1    
    29   14   83 1    
    30   15   16 1    
    31   15   84 1    
    32   15   85 1    
    33   16   17 1    
    34   17   18 1    
    35   17   86 1    
    36   17   87 1    
    37   18   19 1    
    38   18   37 1    
    39   18   88 1    
    40   19   20 am   BACKBONE|DICT|INTERRES
    41   19   89 1    
    42   20   21 2    
    43   20   22 1    
    44   22   23 1    
    45   22   24 1    
    46   22   90 1    
    47   23   91 1    
    48   23   92 1    
    49   23   93 1    
    50   24   25 am   BACKBONE|DICT|INTERRES
    51   24   94 1    
    52   25   26 2    
    53   25   27 1    
    54   27   28 1    
    55   27   29 1    
    56   27   95 1    
    57   28   96 1    
    58   28   97 1    
    59   28   98 1    
    60   29   30 am   BACKBONE|DICT|INTERRES
    61   29   99 1    
    62   30   31 2    
    63   30   32 1    
    64   32   33 1    
    65   32   34 1    
    66   32  100 1    
    67   33  101 1    
    68   33  102 1    
    69   33  103 1    
    70   34   35 am   BACKBONE|DICT|INTERRES
    71   34  104 1    
    72   35   36 2    
    73   37   38 2    
    74   37   39 am   BACKBONE|DICT|INTERRES
    75   39   40 1    
    76   39  105 1    
    77   40   41 1    
    78   40   42 1    
    79   40  106 1    
    80   41  107 1    
    81   41  108 1    
    82   41  109 1    
    83   42   43 2    
    84   42   44 am   BACKBONE|DICT|INTERRES
    85   44   45 1    
    86   44  110 1    
    87   45   46 1    
    88   45   47 1    
    89   45  111 1    
    90   46  112 1    
    91   46  113 1    
    92   46  114 1    
    93   47   48 2    
    94   47   49 am   BACKBONE|DICT|INTERRES
    95   49   50 1    
    96   49  115 1    
    97   50   51 1    
    98   50   52 1    
    99   50  116 1    
   100   51  117 1    
   101   51  118 1    
   102   51  119 1    
   103   52   53 2    
   104   52   54 am   BACKBONE|DICT|INTERRES
   105   54   55 1    
   106   54  120 1    
   107   55   56 1    
   108   55   57 1    
   109   55  121 1    
   110   56  122 1    
   111   56  123 1    
   112   56  124 1    
   113   57   58 2    
   114   57   59 am   BACKBONE|DICT|INTERRES
   115   59   60 1    
   116   59  125 1    
   117   60   61 1    
   118   60   62 1    
   119   60  126 1    
   120   61  127 1    
   121   61  128 1    
   122   61  129 1    
   123   62   63 2    
   124   62   64 am   BACKBONE|DICT|INTERRES
   125   64   65 1    
   126   64  130 1    
   127   65   66 1    
   128   65   69 1    
   129   65  131 1    
   130   66   67 am   BACKBONE|DICT|INTERRES
   131   66   68 2    
   132   67  132 1    
   133   67  133 1    
   134   69   70 1    
   135   69  134 1    
   136   69  135 1    
   137   70   71 1    
   138   71  136 1    
   139   71  137 1    
@<TRIPOS>SUBSTRUCTURE
     1 UNK         1 GROUP             0       ****    0 ROOT    
