@<TRIPOS>MOLECULE
3R136
137   139    1
SMALL
USER_CHARGES


@<TRIPOS>ATOM
      1 CA         25.4585   19.7557    1.8649 C.3       0 UNK        -0.1979 
      2 C          26.0882   20.9805    1.2195 C.2       0 UNK         0.4864 
      3 O          25.5865   21.4592    0.2014 O.2       0 UNK        -0.5359 
      4 N          27.1744   21.4994    1.8127 N.am      1 UNK        -0.4318 
      5 CA         27.9609   22.6454    1.3297 C.3       1 UNK         0.0824 
      6 C6         29.1451   22.9756    2.2671 C.3       12 UNK        -0.0944 
      7 S7         30.3046   21.5825    2.4993 S.3       12 UNK        -0.2672 
      8 C8         31.8333   22.1847    1.6992 C.3       12 UNK         0.0333 
      9 C9         32.2552   23.5657    2.1896 C.ar      12 UNK        -0.0807 
     10 C10        32.4832   23.8003    3.5493 C.ar      12 UNK        -0.0894 
     11 C11        32.7887   25.0852    4.0101 C.ar      12 UNK        -0.0804 
     12 C12        32.8857   26.1355    3.0913 C.ar      12 UNK        -0.0824 
     13 C13        32.6975   25.9065    1.7255 C.ar      12 UNK        -0.0762 
     14 C14        32.3803   24.6205    1.2807 C.ar      12 UNK        -0.0782 
     15 C15        32.8359   27.0485    0.7302 C.3       12 UNK         0.0230 
     16 S16        31.3828   28.1402    0.7481 S.3       12 UNK        -0.2608 
     17 C17        30.0526   27.0343    0.1649 C.3       12 UNK        -0.0989 
     18 CA         28.9376   27.7954   -0.5973 C.3       5 UNK         0.0716 
     19 N          28.1016   26.8610   -1.3479 N.am      5 UNK        -0.4135 
     20 C          27.5887   27.0933   -2.5612 C.2       4 UNK         0.5031 
     21 O          27.7441   28.1480   -3.1788 O.2       4 UNK        -0.5229 
     22 CA         26.7883   25.9589   -3.2167 C.3       4 UNK         0.0329 
     23 CB         27.7346   24.8799   -3.7709 C.3       4 UNK        -0.2001 
     24 N          25.8347   25.3381   -2.2938 N.am      4 UNK        -0.4303 
     25 C          24.5305   25.1590   -2.5539 C.2       3 UNK         0.5044 
     26 O          23.9818   25.5375   -3.5901 O.2       3 UNK        -0.5152 
     27 CA         23.6795   24.4140   -1.5056 C.3       3 UNK         0.0319 
     28 CB         23.4017   22.9745   -1.9681 C.3       3 UNK        -0.2001 
     29 N          24.2898   24.3772   -0.1760 N.am      3 UNK        -0.4354 
     30 C          24.3745   25.4347    0.6452 C.2       2 UNK         0.4964 
     31 O          23.8481   26.5215    0.4046 O.2       2 UNK        -0.5047 
     32 CA         25.1827   25.2686    1.9476 C.3       2 UNK         0.0288 
     33 CB         24.2367   25.1532    3.1545 C.3       2 UNK        -0.2113 
     34 N          26.1096   24.1319    1.9642 N.am      2 UNK        -0.4145 
     35 C          27.1240   23.9217    1.1110 C.2       1 UNK         0.5006 
     36 O          27.3932   24.6635    0.1647 O.2       1 UNK        -0.5103 
     37 C          28.0638   28.6155    0.3693 C.2       5 UNK         0.5055 
     38 O          27.0737   28.1031    0.8945 O.2       5 UNK        -0.5220 
     39 N          28.4889   29.8573    0.6374 N.am      6 UNK        -0.4450 
     40 CA         27.9415   30.7080    1.6987 C.3       6 UNK         0.0367 
     41 CB         28.3370   32.1686    1.4259 C.3       6 UNK        -0.1929 
     42 C          28.4142   30.2880    3.1045 C.2       6 UNK         0.5070 
     43 O          27.7774   30.6670    4.0880 O.2       6 UNK        -0.5237 
     44 N          29.5296   29.5438    3.1749 N.am      7 UNK        -0.4739 
     45 CA         30.2445   29.0299    4.3520 C.3       7 UNK         0.0276 
     46 CB         29.3721   28.0616    5.1718 C.3       7 UNK        -0.1927 
     47 C          30.8753   30.1171    5.2394 C.2       7 UNK         0.5013 
     48 O          32.0635   30.0188    5.5472 O.2       7 UNK        -0.5193 
     49 N          30.0937   31.1391    5.6123 N.am      8 UNK        -0.4253 
     50 CA         30.5158   32.3118    6.3826 C.3       8 UNK         0.0242 
     51 CB         29.3103   33.2426    6.5914 C.3       8 UNK        -0.2000 
     52 C          31.6646   33.0481    5.6761 C.2       8 UNK         0.4948 
     53 O          31.4914   33.4801    4.5341 O.2       8 UNK        -0.5275 
     54 N          32.8334   33.0955    6.3311 N.am      9 UNK        -0.4246 
     55 CA         34.1438   33.5584    5.8429 C.3       9 UNK         0.0261 
     56 CB         34.1120   35.0462    5.4418 C.3       9 UNK        -0.1959 
     57 C          34.7487   32.6927    4.7180 C.2       9 UNK         0.5033 
     58 O          35.9543   32.4414    4.7390 O.2       9 UNK        -0.5390 
     59 N          33.9137   32.2318    3.7784 N.am      10 UNK        -0.4215 
     60 CA         34.2570   31.4022    2.6204 C.3       10 UNK         0.0240 
     61 CB         32.9897   31.1728    1.7836 C.3       10 UNK        -0.1982 
     62 C          34.9346   30.0611    2.9604 C.2       10 UNK         0.4970 
     63 O          35.7246   29.5750    2.1505 O.2       10 UNK        -0.4916 
     64 N          34.6427   29.4997    4.1420 N.am      11 UNK        -0.4279 
     65 CA         35.3404   28.3297    4.7017 C.3       11 UNK         0.1003 
     66 C          36.8182   28.5935    5.1269 C.2       11 UNK         0.5709 
     67 N          37.2814   29.8355    5.2217 N.am      11 UNK        -0.7358 
     68 O          37.5684   27.6501    5.3644 O.2       11 UNK        -0.4999 
     69 C69        34.5141   27.6885    5.8513 C.3       12 UNK        -0.0954 
     70 S70        34.6578   25.8700    5.9309 S.3       12 UNK        -0.2268 
     71 C71        32.9682   25.3327    5.5030 C.3       12 UNK         0.0203 
     72 H72        24.4273   19.9684    2.1454 H         1 UNK         0.0888 
     73 H73        25.4560   18.9228    1.1624 H         1 UNK         0.0888 
     74 H74        25.9967   19.4434    2.7597 H         1 UNK         0.0888 
     75 H75        27.5450   21.0481    2.6375 H         1 UNK         0.3017 
     76 H76        28.3645   22.3640    0.3548 H         1 UNK         0.0873 
     77 H77        28.7817   23.2673    3.2545 H         1 UNK         0.0745 
     78 H78        29.6839   23.8436    1.8856 H         1 UNK         0.0745 
     79 H79        31.6798   22.1861    0.6189 H         1 UNK         0.0705 
     80 H80        32.6386   21.4755    1.8950 H         1 UNK         0.0705 
     81 H81        32.3855   22.9836    4.2516 H         1 UNK         0.1334 
     82 H82        33.1049   27.1351    3.4348 H         1 UNK         0.1417 
     83 H83        32.2141   24.4450    0.2265 H         1 UNK         0.1562 
     84 H84        32.9945   26.6702   -0.2809 H         1 UNK         0.0748 
     85 H85        33.7209   27.6375    0.9766 H         1 UNK         0.0748 
     86 H86        29.6497   26.4735    1.0115 H         1 UNK         0.0940 
     87 H87        30.5004   26.2928   -0.4986 H         1 UNK         0.0940 
     88 H88        29.4145   28.4817   -1.3011 H         1 UNK         0.0703 
     89 H89        27.8663   26.0008   -0.8554 H         1 UNK         0.3081 
     90 H90        26.2599   26.4031   -4.0630 H         1 UNK         0.0719 
     91 H91        28.4687   25.3141   -4.4511 H         1 UNK         0.0809 
     92 H92        28.2831   24.3743   -2.9749 H         1 UNK         0.0809 
     93 H93        27.1842   24.1228   -4.3296 H         1 UNK         0.0809 
     94 H94        26.2012   25.0188   -1.4032 H         1 UNK         0.2990 
     95 H95        22.7231   24.9359   -1.4296 H         1 UNK         0.0690 
     96 H96        22.7643   22.4448   -1.2600 H         1 UNK         0.0788 
     97 H97        24.3241   22.4031   -2.0809 H         1 UNK         0.0788 
     98 H98        22.8924   22.9649   -2.9328 H         1 UNK         0.0788 
     99 H99        24.7406   23.5087    0.0903 H         1 UNK         0.2993 
    100 H100       25.7797   26.1739    2.0677 H         1 UNK         0.0949 
    101 H101       23.5519   26.0015    3.1973 H         1 UNK         0.0767 
    102 H102       23.6312   24.2471    3.1066 H         1 UNK         0.0767 
    103 H103       24.7900   25.1407    4.0939 H         1 UNK         0.0767 
    104 H104       25.9630   23.4474    2.6917 H         1 UNK         0.3013 
    105 H105       29.3101   30.2011    0.1592 H         1 UNK         0.3121 
    106 H106       26.8517   30.6360    1.6805 H         1 UNK         0.0774 
    107 H107       27.9155   32.8337    2.1811 H         1 UNK         0.0815 
    108 H108       29.4193   32.3055    1.4421 H         1 UNK         0.0815 
    109 H109       27.9681   32.5065    0.4573 H         1 UNK         0.0815 
    110 H110       29.9666   29.3072    2.2935 H         1 UNK         0.2987 
    111 H111       31.0753   28.4473    3.9514 H         1 UNK         0.0949 
    112 H112       29.9432   27.6247    5.9920 H         1 UNK         0.0806 
    113 H113       29.0107   27.2389    4.5547 H         1 UNK         0.0806 
    114 H114       28.5058   28.5589    5.6087 H         1 UNK         0.0806 
    115 H115       29.1416   31.1366    5.2534 H         1 UNK         0.3010 
    116 H116       30.8566   31.9625    7.3592 H         1 UNK         0.0829 
    117 H117       28.9013   33.5907    5.6416 H         1 UNK         0.0813 
    118 H118       28.5104   32.7404    7.1358 H         1 UNK         0.0813 
    119 H119       29.5925   34.1241    7.1686 H         1 UNK         0.0813 
    120 H120       32.8618   32.6637    7.2450 H         1 UNK         0.3038 
    121 H121       34.8192   33.4676    6.6953 H         1 UNK         0.0769 
    122 H122       35.1126   35.4004    5.1901 H         1 UNK         0.0811 
    123 H123       33.7437   35.6689    6.2570 H         1 UNK         0.0811 
    124 H124       33.4799   35.2244    4.5715 H         1 UNK         0.0811 
    125 H125       32.9444   32.5322    3.8578 H         1 UNK         0.3204 
    126 H126       34.9652   31.9740    2.0176 H         1 UNK         0.0748 
    127 H127       33.2124   30.5879    0.8902 H         1 UNK         0.0771 
    128 H128       32.2291   30.6349    2.3498 H         1 UNK         0.0771 
    129 H129       32.5550   32.1159    1.4516 H         1 UNK         0.0771 
    130 H130       33.9397   29.9306    4.7333 H         1 UNK         0.2980 
    131 H131       35.4007   27.6035    3.8890 H         1 UNK         0.0545 
    132 H132       36.6965   30.6390    5.0154 H         1 UNK         0.3459 
    133 H133       38.2412   29.9776    5.4923 H         1 UNK         0.3459 
    134 H134       34.7908   28.1081    6.8203 H         1 UNK         0.0616 
    135 H135       33.4589   27.9269    5.7342 H         1 UNK         0.0616 
    136 H136       32.2305   26.0582    5.8475 H         1 UNK         0.0634 
    137 H137       32.7629   24.4181    6.0613 H         1 UNK         0.0634 
@<TRIPOS>BOND
     1    1    2 1    
     2    1   72 1    
     3    1   73 1    
     4    1   74 1    
     5    2    3 2    
     6    2    4 am   BACKBONE|DICT|INTERRES
     7    4    5 1    
     8    4   75 1    
     9    5    6 1    
    10    5   35 1    
    11    5   76 1    
    12    6    7 1    
    13    6   77 1    
    14    6   78 1    
    15    7    8 1    
    16    8    9 1    
    17    8   79 1    
    18    8   80 1    
    19    9   10 ar   
    20    9   14 ar   
    21   10   11 ar   
    22   10   81 1    
    23   11   12 ar   
    24   11   71 1    
    25   12   13 ar   
    26   12   82 1    
    27   13   14 ar   
    28   13   15 1    
    29   14   83 1    
    30   15   16 1    
    31   15   84 1    
    32   15   85 1    
    33   16   17 1    
    34   17   18 1    
    35   17   86 1    
    36   17   87 1    
    37   18   19 1    
    38   18   37 1    
    39   18   88 1    
    40   19   20 am   BACKBONE|DICT|INTERRES
    41   19   89 1    
    42   20   21 2    
    43   20   22 1    
    44   22   23 1    
    45   22   24 1    
    46   22   90 1    
    47   23   91 1    
    48   23   92 1    
    49   23   93 1    
    50   24   25 am   BACKBONE|DICT|INTERRES
    51   24   94 1    
    52   25   26 2    
    53   25   27 1    
    54   27   28 1    
    55   27   29 1    
    56   27   95 1    
    57   28   96 1    
    58   28   97 1    
    59   28   98 1    
    60   29   30 am   BACKBONE|DICT|INTERRES
    61   29   99 1    
    62   30   31 2    
    63   30   32 1    
    64   32   33 1    
    65   32   34 1    
    66   32  100 1    
    67   33  101 1    
    68   33  102 1    
    69   33  103 1    
    70   34   35 am   BACKBONE|DICT|INTERRES
    71   34  104 1    
    72   35   36 2    
    73   37   38 2    
    74   37   39 am   BACKBONE|DICT|INTERRES
    75   39   40 1    
    76   39  105 1    
    77   40   41 1    
    78   40   42 1    
    79   40  106 1    
    80   41  107 1    
    81   41  108 1    
    82   41  109 1    
    83   42   43 2    
    84   42   44 am   BACKBONE|DICT|INTERRES
    85   44   45 1    
    86   44  110 1    
    87   45   46 1    
    88   45   47 1    
    89   45  111 1    
    90   46  112 1    
    91   46  113 1    
    92   46  114 1    
    93   47   48 2    
    94   47   49 am   BACKBONE|DICT|INTERRES
    95   49   50 1    
    96   49  115 1    
    97   50   51 1    
    98   50   52 1    
    99   50  116 1    
   100   51  117 1    
   101   51  118 1    
   102   51  119 1    
   103   52   53 2    
   104   52   54 am   BACKBONE|DICT|INTERRES
   105   54   55 1    
   106   54  120 1    
   107   55   56 1    
   108   55   57 1    
   109   55  121 1    
   110   56  122 1    
   111   56  123 1    
   112   56  124 1    
   113   57   58 2    
   114   57   59 am   BACKBONE|DICT|INTERRES
   115   59   60 1    
   116   59  125 1    
   117   60   61 1    
   118   60   62 1    
   119   60  126 1    
   120   61  127 1    
   121   61  128 1    
   122   61  129 1    
   123   62   63 2    
   124   62   64 am   BACKBONE|DICT|INTERRES
   125   64   65 1    
   126   64  130 1    
   127   65   66 1    
   128   65   69 1    
   129   65  131 1    
   130   66   67 am   BACKBONE|DICT|INTERRES
   131   66   68 2    
   132   67  132 1    
   133   67  133 1    
   134   69   70 1    
   135   69  134 1    
   136   69  135 1    
   137   70   71 1    
   138   71  136 1    
   139   71  137 1    
@<TRIPOS>SUBSTRUCTURE
     1 UNK         1 GROUP             0       ****    0 ROOT    
