@<TRIPOS>MOLECULE
3R136
137   139    1
SMALL
USER_CHARGES


@<TRIPOS>ATOM
      1 CA         30.5841   18.7909   -1.2291 C.3       0 UNK        -0.1979 
      2 C          30.5126   20.2884   -0.9699 C.2       0 UNK         0.4864 
      3 O          31.1224   21.0654   -1.7057 O.2       0 UNK        -0.5359 
      4 N          29.7743   20.6969    0.0713 N.am      1 UNK        -0.4318 
      5 CA         29.5951   22.0964    0.4800 C.3       1 UNK         0.0824 
      6 C6         28.9832   22.2022    1.8986 C.3       12 UNK        -0.0944 
      7 S7         30.1100   21.5703    3.1851 S.3       12 UNK        -0.2672 
      8 C8         29.6509   22.6082    4.6218 C.3       12 UNK         0.0333 
      9 C9         30.0743   24.0816    4.5769 C.ar      12 UNK        -0.0807 
     10 C10        30.8624   24.6246    3.5516 C.ar      12 UNK        -0.0894 
     11 C11        31.2094   25.9783    3.5609 C.ar      12 UNK        -0.0804 
     12 C12        30.7893   26.7923    4.6146 C.ar      12 UNK        -0.0824 
     13 C13        29.9936   26.2763    5.6375 C.ar      12 UNK        -0.0762 
     14 C14        29.6490   24.9202    5.6155 C.ar      12 UNK        -0.0782 
     15 C15        29.5130   27.1800    6.7672 C.3       12 UNK         0.0230 
     16 S16        27.7100   27.4457    6.7044 S.3       12 UNK        -0.2608 
     17 C17        27.5222   29.0354    5.8126 C.3       12 UNK        -0.0989 
     18 CA         27.9943   29.0440    4.3340 C.3       5 UNK         0.0716 
     19 N          27.6616   27.7997    3.6366 N.am      5 UNK        -0.4135 
     20 C          28.0759   27.4460    2.4145 C.2       4 UNK         0.5031 
     21 O          28.7057   28.1921    1.6617 O.2       4 UNK        -0.5229 
     22 CA         27.7298   26.0224    1.9494 C.3       4 UNK         0.0329 
     23 CB         26.8181   25.2311    2.9184 C.3       4 UNK        -0.2001 
     24 N          27.1674   26.0082    0.5999 N.am      4 UNK        -0.4303 
     25 C          26.0485   26.6175    0.1798 C.2       3 UNK         0.5044 
     26 O          25.3506   27.3382    0.8952 O.2       3 UNK        -0.5152 
     27 CA         25.6210   26.3786   -1.2830 C.3       3 UNK         0.0319 
     28 CB         25.9115   27.6221   -2.1385 C.3       3 UNK        -0.2001 
     29 N          26.2564   25.2098   -1.9035 N.am      3 UNK        -0.4354 
     30 C          26.0176   23.9330   -1.5690 C.2       2 UNK         0.4964 
     31 O          25.1626   23.5876   -0.7526 O.2       2 UNK        -0.5047 
     32 CA         26.9017   22.8519   -2.2220 C.3       2 UNK         0.0288 
     33 CB         27.6560   23.3270   -3.4861 C.3       2 UNK        -0.2113 
     34 N          27.8355   22.2679   -1.2489 N.am      2 UNK        -0.4145 
     35 C          28.7638   22.9200   -0.5276 C.2       1 UNK         0.5006 
     36 O          28.9777   24.1302   -0.6222 O.2       1 UNK        -0.5103 
     37 C          27.5063   30.3179    3.6052 C.2       5 UNK         0.5055 
     38 O          28.0136   31.4031    3.8898 O.2       5 UNK        -0.5220 
     39 N          26.5440   30.1724    2.6803 N.am      6 UNK        -0.4450 
     40 CA         26.0531   31.2404    1.8095 C.3       6 UNK         0.0367 
     41 CB         24.7184   30.8113    1.1796 C.3       6 UNK        -0.1929 
     42 C          27.0573   31.6441    0.7138 C.2       6 UNK         0.5070 
     43 O          26.9884   32.7806    0.2448 O.2       6 UNK        -0.5237 
     44 N          27.9631   30.7348    0.3172 N.am      7 UNK        -0.4739 
     45 CA         29.0440   31.0300   -0.6296 C.3       7 UNK         0.0276 
     46 CB         29.5874   29.7279   -1.2413 C.3       7 UNK        -0.1927 
     47 C          30.1640   31.8277    0.0535 C.2       7 UNK         0.5013 
     48 O          30.5732   32.8712   -0.4567 O.2       7 UNK        -0.5193 
     49 N          30.6024   31.3335    1.2149 N.am      8 UNK        -0.4253 
     50 CA         31.5423   31.9682    2.1298 C.3       8 UNK         0.0242 
     51 CB         32.9816   31.9000    1.5834 C.3       8 UNK        -0.2000 
     52 C          31.4312   31.2169    3.4553 C.2       8 UNK         0.4948 
     53 O          31.3596   29.9883    3.4356 O.2       8 UNK        -0.5275 
     54 N          31.4369   31.9445    4.5788 N.am      9 UNK        -0.4246 
     55 CA         31.3190   31.3666    5.9235 C.3       9 UNK         0.0261 
     56 CB         31.0185   32.4848    6.9342 C.3       9 UNK        -0.1959 
     57 C          32.5555   30.5593    6.3610 C.2       9 UNK         0.5033 
     58 O          32.4276   29.6766    7.2099 O.2       9 UNK        -0.5390 
     59 N          33.7167   30.8726    5.7751 N.am      10 UNK        -0.4215 
     60 CA         34.9920   30.2004    5.9940 C.3       10 UNK         0.0240 
     61 CB         35.8632   31.0459    6.9433 C.3       10 UNK        -0.1982 
     62 C          35.6439   29.9628    4.6264 C.2       10 UNK         0.4970 
     63 O          36.6110   30.6401    4.2746 O.2       10 UNK        -0.4916 
     64 N          35.0703   29.0252    3.8637 N.am      11 UNK        -0.4279 
     65 CA         35.5638   28.5837    2.5479 C.3       11 UNK         0.1003 
     66 C          36.9277   27.8288    2.5625 C.2       11 UNK         0.5709 
     67 N          37.4217   27.3621    3.7036 N.am      11 UNK        -0.7358 
     68 O          37.5546   27.6764    1.5166 O.2       11 UNK        -0.4999 
     69 C69        34.4795   27.7928    1.7662 C.3       12 UNK        -0.0954 
     70 S70        33.7981   26.3802    2.7065 S.3       12 UNK        -0.2268 
     71 C71        32.0142   26.5776    2.4210 C.3       12 UNK         0.0203 
     72 H72        31.6179   18.4503   -1.1762 H         1 UNK         0.0888 
     73 H73        30.0029   18.2226   -0.5030 H         1 UNK         0.0888 
     74 H74        30.2004   18.5634   -2.2234 H         1 UNK         0.0888 
     75 H75        29.3227   20.0099    0.6587 H         1 UNK         0.3017 
     76 H76        30.5847   22.5586    0.5049 H         1 UNK         0.0873 
     77 H77        28.7552   23.2396    2.1359 H         1 UNK         0.0745 
     78 H78        28.0363   21.6625    1.9596 H         1 UNK         0.0745 
     79 H79        30.0921   22.1562    5.5111 H         1 UNK         0.0705 
     80 H80        28.5693   22.5512    4.7540 H         1 UNK         0.0705 
     81 H81        31.2085   24.0085    2.7348 H         1 UNK         0.1334 
     82 H82        31.0696   27.8351    4.6284 H         1 UNK         0.1417 
     83 H83        29.0365   24.5186    6.4119 H         1 UNK         0.1562 
     84 H84        30.0304   28.1406    6.7543 H         1 UNK         0.0748 
     85 H85        29.7643   26.7135    7.7206 H         1 UNK         0.0748 
     86 H86        28.0428   29.8125    6.3757 H         1 UNK         0.0940 
     87 H87        26.4625   29.2932    5.8688 H         1 UNK         0.0940 
     88 H88        29.0821   29.1024    4.3418 H         1 UNK         0.0703 
     89 H89        27.1615   27.1184    4.1890 H         1 UNK         0.3081 
     90 H90        28.6845   25.5029    1.8800 H         1 UNK         0.0719 
     91 H91        27.2952   25.0863    3.8879 H         1 UNK         0.0809 
     92 H92        26.5963   24.2392    2.5247 H         1 UNK         0.0809 
     93 H93        25.8630   25.7307    3.0852 H         1 UNK         0.0809 
     94 H94        27.7012   25.4653   -0.0733 H         1 UNK         0.2990 
     95 H95        24.5416   26.2132   -1.2775 H         1 UNK         0.0690 
     96 H96        25.5008   27.5168   -3.1428 H         1 UNK         0.0788 
     97 H97        26.9818   27.8035   -2.2310 H         1 UNK         0.0788 
     98 H98        25.4651   28.5157   -1.6993 H         1 UNK         0.0788 
     99 H99        26.9927   25.3937   -2.5699 H         1 UNK         0.2993 
    100 H100       26.2247   22.0517   -2.5259 H         1 UNK         0.0949 
    101 H101       26.9663   23.7329   -4.2276 H         1 UNK         0.0767 
    102 H102       28.4005   24.0934   -3.2680 H         1 UNK         0.0767 
    103 H103       28.1778   22.4952   -3.9598 H         1 UNK         0.0767 
    104 H104       27.7231   21.2789   -1.0765 H         1 UNK         0.3013 
    105 H105       26.1915   29.2424    2.4960 H         1 UNK         0.3121 
    106 H106       25.8691   32.1223    2.4270 H         1 UNK         0.0774 
    107 H107       24.2961   31.6171    0.5776 H         1 UNK         0.0815 
    108 H108       24.8397   29.9479    0.5249 H         1 UNK         0.0815 
    109 H109       23.9812   30.5560    1.9409 H         1 UNK         0.0815 
    110 H110       27.9926   29.8273    0.7736 H         1 UNK         0.2987 
    111 H111       28.6437   31.6408   -1.4422 H         1 UNK         0.0949 
    112 H112       28.8075   29.1870   -1.7745 H         1 UNK         0.0806 
    113 H113       30.3817   29.9385   -1.9585 H         1 UNK         0.0806 
    114 H114       30.0019   29.0594   -0.4861 H         1 UNK         0.0806 
    115 H115       30.2131   30.4637    1.5615 H         1 UNK         0.3010 
    116 H116       31.2470   33.0097    2.2736 H         1 UNK         0.0829 
    117 H117       33.0812   32.4473    0.6461 H         1 UNK         0.0813 
    118 H118       33.6898   32.3374    2.2879 H         1 UNK         0.0813 
    119 H119       33.2937   30.8711    1.4033 H         1 UNK         0.0813 
    120 H120       31.4883   32.9517    4.5166 H         1 UNK         0.3038 
    121 H121       30.4704   30.6791    5.9184 H         1 UNK         0.0769 
    122 H122       31.8219   33.2214    6.9745 H         1 UNK         0.0811 
    123 H123       30.8978   32.0791    7.9398 H         1 UNK         0.0811 
    124 H124       30.0939   33.0061    6.6850 H         1 UNK         0.0811 
    125 H125       33.7137   31.5956    5.0695 H         1 UNK         0.3204 
    126 H126       34.8351   29.2216    6.4531 H         1 UNK         0.0748 
    127 H127       36.8354   30.5776    7.1023 H         1 UNK         0.0771 
    128 H128       36.0413   32.0468    6.5479 H         1 UNK         0.0771 
    129 H129       35.3911   31.1527    7.9201 H         1 UNK         0.0771 
    130 H130       34.2658   28.5254    4.2143 H         1 UNK         0.2980 
    131 H131       35.7551   29.4930    1.9748 H         1 UNK         0.0545 
    132 H132       38.3071   26.8812    3.6973 H         1 UNK         0.3459 
    133 H133       36.9109   27.4692    4.5644 H         1 UNK         0.3459 
    134 H134       34.8674   27.4251    0.8145 H         1 UNK         0.0616 
    135 H135       33.6709   28.4747    1.5026 H         1 UNK         0.0616 
    136 H136       31.7450   26.1034    1.4760 H         1 UNK         0.0634 
    137 H137       31.7571   27.6319    2.3146 H         1 UNK         0.0634 
@<TRIPOS>BOND
     1    1    2 1    
     2    1   72 1    
     3    1   73 1    
     4    1   74 1    
     5    2    3 2    
     6    2    4 am   BACKBONE|DICT|INTERRES
     7    4    5 1    
     8    4   75 1    
     9    5    6 1    
    10    5   35 1    
    11    5   76 1    
    12    6    7 1    
    13    6   77 1    
    14    6   78 1    
    15    7    8 1    
    16    8    9 1    
    17    8   79 1    
    18    8   80 1    
    19    9   10 ar   
    20    9   14 ar   
    21   10   11 ar   
    22   10   81 1    
    23   11   12 ar   
    24   11   71 1    
    25   12   13 ar   
    26   12   82 1    
    27   13   14 ar   
    28   13   15 1    
    29   14   83 1    
    30   15   16 1    
    31   15   84 1    
    32   15   85 1    
    33   16   17 1    
    34   17   18 1    
    35   17   86 1    
    36   17   87 1    
    37   18   19 1    
    38   18   37 1    
    39   18   88 1    
    40   19   20 am   BACKBONE|DICT|INTERRES
    41   19   89 1    
    42   20   21 2    
    43   20   22 1    
    44   22   23 1    
    45   22   24 1    
    46   22   90 1    
    47   23   91 1    
    48   23   92 1    
    49   23   93 1    
    50   24   25 am   BACKBONE|DICT|INTERRES
    51   24   94 1    
    52   25   26 2    
    53   25   27 1    
    54   27   28 1    
    55   27   29 1    
    56   27   95 1    
    57   28   96 1    
    58   28   97 1    
    59   28   98 1    
    60   29   30 am   BACKBONE|DICT|INTERRES
    61   29   99 1    
    62   30   31 2    
    63   30   32 1    
    64   32   33 1    
    65   32   34 1    
    66   32  100 1    
    67   33  101 1    
    68   33  102 1    
    69   33  103 1    
    70   34   35 am   BACKBONE|DICT|INTERRES
    71   34  104 1    
    72   35   36 2    
    73   37   38 2    
    74   37   39 am   BACKBONE|DICT|INTERRES
    75   39   40 1    
    76   39  105 1    
    77   40   41 1    
    78   40   42 1    
    79   40  106 1    
    80   41  107 1    
    81   41  108 1    
    82   41  109 1    
    83   42   43 2    
    84   42   44 am   BACKBONE|DICT|INTERRES
    85   44   45 1    
    86   44  110 1    
    87   45   46 1    
    88   45   47 1    
    89   45  111 1    
    90   46  112 1    
    91   46  113 1    
    92   46  114 1    
    93   47   48 2    
    94   47   49 am   BACKBONE|DICT|INTERRES
    95   49   50 1    
    96   49  115 1    
    97   50   51 1    
    98   50   52 1    
    99   50  116 1    
   100   51  117 1    
   101   51  118 1    
   102   51  119 1    
   103   52   53 2    
   104   52   54 am   BACKBONE|DICT|INTERRES
   105   54   55 1    
   106   54  120 1    
   107   55   56 1    
   108   55   57 1    
   109   55  121 1    
   110   56  122 1    
   111   56  123 1    
   112   56  124 1    
   113   57   58 2    
   114   57   59 am   BACKBONE|DICT|INTERRES
   115   59   60 1    
   116   59  125 1    
   117   60   61 1    
   118   60   62 1    
   119   60  126 1    
   120   61  127 1    
   121   61  128 1    
   122   61  129 1    
   123   62   63 2    
   124   62   64 am   BACKBONE|DICT|INTERRES
   125   64   65 1    
   126   64  130 1    
   127   65   66 1    
   128   65   69 1    
   129   65  131 1    
   130   66   67 am   BACKBONE|DICT|INTERRES
   131   66   68 2    
   132   67  132 1    
   133   67  133 1    
   134   69   70 1    
   135   69  134 1    
   136   69  135 1    
   137   70   71 1    
   138   71  136 1    
   139   71  137 1    
@<TRIPOS>SUBSTRUCTURE
     1 UNK         1 GROUP             0       ****    0 ROOT    
