@<TRIPOS>MOLECULE
3R136
137   139    1
SMALL
USER_CHARGES


@<TRIPOS>ATOM
      1 CA         25.2040   19.7828    0.5679 C.3       0 UNK        -0.1979 
      2 C          26.1344   20.9200    0.1769 C.2       0 UNK         0.4864 
      3 O          25.6641   22.0026   -0.1752 O.2       0 UNK        -0.5359 
      4 N          27.4540   20.6979    0.2527 N.am      1 UNK        -0.4318 
      5 CA         28.4959   21.6715   -0.1028 C.3       1 UNK         0.0824 
      6 C6         29.9108   21.0421   -0.0632 C.3       12 UNK        -0.0944 
      7 S7         30.4166   20.4303    1.5864 S.3       12 UNK        -0.2672 
      8 C8         32.0605   21.1885    1.8017 C.3       12 UNK         0.0333 
      9 C9         31.9973   22.7060    1.9155 C.ar      12 UNK        -0.0807 
     10 C10        31.6416   23.3121    3.1251 C.ar      12 UNK        -0.0894 
     11 C11        31.5918   24.7061    3.2443 C.ar      12 UNK        -0.0804 
     12 C12        31.9057   25.4890    2.1252 C.ar      12 UNK        -0.0824 
     13 C13        32.2551   24.8968    0.9090 C.ar      12 UNK        -0.0762 
     14 C14        32.3118   23.5057    0.8135 C.ar      12 UNK        -0.0782 
     15 C15        32.5651   25.7608   -0.3051 C.3       12 UNK         0.0230 
     16 S16        31.0932   26.0053   -1.3503 S.3       12 UNK        -0.2608 
     17 C17        30.0735   27.0449   -0.2540 C.3       12 UNK        -0.0989 
     18 CA         28.7856   27.5605   -0.9384 C.3       5 UNK         0.0716 
     19 N          27.8683   26.4638   -1.2541 N.am      5 UNK        -0.4135 
     20 C          26.8493   26.5437   -2.1182 C.2       4 UNK         0.5031 
     21 O          26.6277   27.5240   -2.8315 O.2       4 UNK        -0.5229 
     22 CA         25.9102   25.3272   -2.1939 C.3       4 UNK         0.0329 
     23 CB         26.5690   24.1703   -2.9632 C.3       4 UNK        -0.2001 
     24 N          25.4885   24.8624   -0.8707 N.am      4 UNK        -0.4303 
     25 C          24.6847   25.5430   -0.0389 C.2       3 UNK         0.5044 
     26 O          24.1429   26.6104   -0.3290 O.2       3 UNK        -0.5152 
     27 CA         24.4325   24.9308    1.3487 C.3       3 UNK         0.0319 
     28 CB         23.2411   23.9592    1.3094 C.3       3 UNK        -0.2001 
     29 N          25.6212   24.2340    1.8441 N.am      3 UNK        -0.4354 
     30 C          26.5671   24.8035    2.6065 C.2       2 UNK         0.4964 
     31 O          26.4687   25.9337    3.0836 O.2       2 UNK        -0.5047 
     32 CA         27.8340   23.9826    2.9162 C.3       2 UNK         0.0288 
     33 CB         27.7814   23.4337    4.3517 C.3       2 UNK        -0.2113 
     34 N          28.0682   22.8677    1.9978 N.am      2 UNK        -0.4145 
     35 C          28.3995   22.9859    0.7042 C.2       1 UNK         0.5006 
     36 O          28.5390   24.0653    0.1302 O.2       1 UNK        -0.5103 
     37 C          28.0994   28.5934   -0.0235 C.2       5 UNK         0.5055 
     38 O          27.1945   28.2464    0.7390 O.2       5 UNK        -0.5220 
     39 N          28.5907   29.8377   -0.0696 N.am      6 UNK        -0.4450 
     40 CA         28.2812   30.8677    0.9224 C.3       6 UNK         0.0367 
     41 CB         28.6046   32.2518    0.3347 C.3       6 UNK        -0.1929 
     42 C          29.0996   30.6241    2.2017 C.2       6 UNK         0.5070 
     43 O          30.2343   30.1508    2.1160 O.2       6 UNK        -0.5237 
     44 N          28.5287   30.9877    3.3572 N.am      7 UNK        -0.4739 
     45 CA         29.1829   30.8791    4.6678 C.3       7 UNK         0.0276 
     46 CB         28.1099   30.8948    5.7690 C.3       7 UNK        -0.1927 
     47 C          30.2315   31.9787    4.9246 C.2       7 UNK         0.5013 
     48 O          31.0552   31.8226    5.8289 O.2       7 UNK        -0.5193 
     49 N          30.1767   33.0672    4.1415 N.am      8 UNK        -0.4253 
     50 CA         31.0775   34.2216    4.1996 C.3       8 UNK         0.0242 
     51 CB         30.6571   35.2392    3.1247 C.3       8 UNK        -0.2000 
     52 C          32.5555   33.8333    4.0199 C.2       8 UNK         0.4948 
     53 O          32.8581   32.9269    3.2405 O.2       8 UNK        -0.5275 
     54 N          33.4361   34.5362    4.7477 N.am      9 UNK        -0.4246 
     55 CA         34.8843   34.3020    4.8395 C.3       9 UNK         0.0261 
     56 CB         35.5832   34.6213    3.4988 C.3       9 UNK        -0.1959 
     57 C          35.2187   32.8941    5.3770 C.2       9 UNK         0.5033 
     58 O          36.0850   32.2128    4.8236 O.2       9 UNK        -0.5390 
     59 N          34.5009   32.4829    6.4366 N.am      10 UNK        -0.4215 
     60 CA         34.6003   31.1919    7.1344 C.3       10 UNK         0.0240 
     61 CB         35.9142   31.1154    7.9425 C.3       10 UNK        -0.1982 
     62 C          34.4059   29.9907    6.1877 C.2       10 UNK         0.4970 
     63 O          35.2250   29.0690    6.1779 O.2       10 UNK        -0.4916 
     64 N          33.3315   30.0485    5.3906 N.am      11 UNK        -0.4279 
     65 CA         32.9861   29.0974    4.3215 C.3       11 UNK         0.1003 
     66 C          33.9317   29.1301    3.0784 C.2       11 UNK         0.5709 
     67 N          34.8929   30.0421    2.9787 N.am      11 UNK        -0.7358 
     68 O          33.7790   28.3253    2.1641 O.2       11 UNK        -0.4999 
     69 C69        32.7186   27.6537    4.8641 C.3       12 UNK        -0.0954 
     70 S70        30.9876   27.1230    4.6495 S.3       12 UNK        -0.2268 
     71 C71        31.1831   25.3058    4.5938 C.3       12 UNK         0.0203 
     72 H72        24.5708   19.5121   -0.2764 H         1 UNK         0.0888 
     73 H73        25.7537   18.8948    0.8795 H         1 UNK         0.0888 
     74 H74        24.5607   20.0917    1.3914 H         1 UNK         0.0888 
     75 H75        27.7908   19.7976    0.5647 H         1 UNK         0.3017 
     76 H76        28.3047   21.9460   -1.1421 H         1 UNK         0.0873 
     77 H77        29.9498   20.1971   -0.7524 H         1 UNK         0.0745 
     78 H78        30.6417   21.7520   -0.4484 H         1 UNK         0.0745 
     79 H79        32.5187   20.7784    2.7027 H         1 UNK         0.0705 
     80 H80        32.7048   20.8898    0.9733 H         1 UNK         0.0705 
     81 H81        31.3971   22.6924    3.9773 H         1 UNK         0.1334 
     82 H82        31.8693   26.5668    2.1793 H         1 UNK         0.1417 
     83 H83        32.5906   23.0483   -0.1259 H         1 UNK         0.1562 
     84 H84        33.3481   25.2912   -0.9023 H         1 UNK         0.0748 
     85 H85        32.9605   26.7298    0.0042 H         1 UNK         0.0748 
     86 H86        30.6952   27.8759    0.0877 H         1 UNK         0.0940 
     87 H87        29.8137   26.4707    0.6375 H         1 UNK         0.0940 
     88 H88        29.0591   28.0595   -1.8708 H         1 UNK         0.0703 
     89 H89        27.9994   25.6093   -0.7163 H         1 UNK         0.3081 
     90 H90        25.0148   25.6297   -2.7411 H         1 UNK         0.0719 
     91 H91        27.4830   23.8289   -2.4771 H         1 UNK         0.0809 
     92 H92        25.8967   23.3163   -3.0490 H         1 UNK         0.0809 
     93 H93        26.8349   24.4786   -3.9751 H         1 UNK         0.0809 
     94 H94        25.8182   23.9476   -0.5799 H         1 UNK         0.2990 
     95 H95        24.1728   25.7451    2.0287 H         1 UNK         0.0690 
     96 H96        23.0395   23.5398    2.2952 H         1 UNK         0.0788 
     97 H97        23.4102   23.1310    0.6209 H         1 UNK         0.0788 
     98 H98        22.3347   24.4712    0.9836 H         1 UNK         0.0788 
     99 H99        25.7841   23.3077    1.4678 H         1 UNK         0.2993 
    100 H100       28.6833   24.6643    2.8326 H         1 UNK         0.0949 
    101 H101       27.6662   24.2429    5.0745 H         1 UNK         0.0767 
    102 H102       26.9431   22.7497    4.4913 H         1 UNK         0.0767 
    103 H103       28.6968   22.8995    4.6070 H         1 UNK         0.0767 
    104 H104       27.9742   21.9364    2.3766 H         1 UNK         0.3013 
    105 H105       29.3672   30.0320   -0.6854 H         1 UNK         0.3121 
    106 H106       27.2157   30.8279    1.1616 H         1 UNK         0.0774 
    107 H107       28.3409   33.0457    1.0344 H         1 UNK         0.0815 
    108 H108       29.6669   32.3575    0.1081 H         1 UNK         0.0815 
    109 H109       28.0455   32.4337   -0.5834 H         1 UNK         0.0815 
    110 H110       27.5909   31.3648    3.3465 H         1 UNK         0.2987 
    111 H111       29.7033   29.9202    4.7170 H         1 UNK         0.0949 
    112 H112       28.5622   30.7838    6.7559 H         1 UNK         0.0806 
    113 H113       27.5461   31.8285    5.7726 H         1 UNK         0.0806 
    114 H114       27.4030   30.0735    5.6458 H         1 UNK         0.0806 
    115 H115       29.4785   33.0778    3.4143 H         1 UNK         0.3010 
    116 H116       30.9520   34.6786    5.1843 H         1 UNK         0.0829 
    117 H117       29.6311   35.5772    3.2749 H         1 UNK         0.0813 
    118 H118       31.2943   36.1251    3.1509 H         1 UNK         0.0813 
    119 H119       30.7300   34.8162    2.1205 H         1 UNK         0.0813 
    120 H120       33.0794   35.2744    5.3407 H         1 UNK         0.3038 
    121 H121       35.2647   35.0064    5.5812 H         1 UNK         0.0769 
    122 H122       36.6677   34.5640    3.6011 H         1 UNK         0.0811 
    123 H123       35.3432   35.6280    3.1552 H         1 UNK         0.0811 
    124 H124       35.2962   33.9210    2.7134 H         1 UNK         0.0811 
    125 H125       33.7845   33.1072    6.7832 H         1 UNK         0.3204 
    126 H126       33.7723   31.1575    7.8451 H         1 UNK         0.0748 
    127 H127       35.9547   30.2026    8.5392 H         1 UNK         0.0771 
    128 H128       36.7903   31.1183    7.2920 H         1 UNK         0.0771 
    129 H129       36.0052   31.9554    8.6312 H         1 UNK         0.0771 
    130 H130       32.6986   30.8384    5.4834 H         1 UNK         0.2980 
    131 H131       32.0514   29.4945    3.9275 H         1 UNK         0.0545 
    132 H132       35.0533   30.7219    3.7114 H         1 UNK         0.3459 
    133 H133       35.4772   30.0453    2.1586 H         1 UNK         0.3459 
    134 H134       33.3759   26.9183    4.3961 H         1 UNK         0.0616 
    135 H135       32.9335   27.5805    5.9307 H         1 UNK         0.0616 
    136 H136       31.9063   25.0047    5.3532 H         1 UNK         0.0634 
    137 H137       30.2307   24.8682    4.8919 H         1 UNK         0.0634 
@<TRIPOS>BOND
     1    1    2 1    
     2    1   72 1    
     3    1   73 1    
     4    1   74 1    
     5    2    3 2    
     6    2    4 am   BACKBONE|DICT|INTERRES
     7    4    5 1    
     8    4   75 1    
     9    5    6 1    
    10    5   35 1    
    11    5   76 1    
    12    6    7 1    
    13    6   77 1    
    14    6   78 1    
    15    7    8 1    
    16    8    9 1    
    17    8   79 1    
    18    8   80 1    
    19    9   10 ar   
    20    9   14 ar   
    21   10   11 ar   
    22   10   81 1    
    23   11   12 ar   
    24   11   71 1    
    25   12   13 ar   
    26   12   82 1    
    27   13   14 ar   
    28   13   15 1    
    29   14   83 1    
    30   15   16 1    
    31   15   84 1    
    32   15   85 1    
    33   16   17 1    
    34   17   18 1    
    35   17   86 1    
    36   17   87 1    
    37   18   19 1    
    38   18   37 1    
    39   18   88 1    
    40   19   20 am   BACKBONE|DICT|INTERRES
    41   19   89 1    
    42   20   21 2    
    43   20   22 1    
    44   22   23 1    
    45   22   24 1    
    46   22   90 1    
    47   23   91 1    
    48   23   92 1    
    49   23   93 1    
    50   24   25 am   BACKBONE|DICT|INTERRES
    51   24   94 1    
    52   25   26 2    
    53   25   27 1    
    54   27   28 1    
    55   27   29 1    
    56   27   95 1    
    57   28   96 1    
    58   28   97 1    
    59   28   98 1    
    60   29   30 am   BACKBONE|DICT|INTERRES
    61   29   99 1    
    62   30   31 2    
    63   30   32 1    
    64   32   33 1    
    65   32   34 1    
    66   32  100 1    
    67   33  101 1    
    68   33  102 1    
    69   33  103 1    
    70   34   35 am   BACKBONE|DICT|INTERRES
    71   34  104 1    
    72   35   36 2    
    73   37   38 2    
    74   37   39 am   BACKBONE|DICT|INTERRES
    75   39   40 1    
    76   39  105 1    
    77   40   41 1    
    78   40   42 1    
    79   40  106 1    
    80   41  107 1    
    81   41  108 1    
    82   41  109 1    
    83   42   43 2    
    84   42   44 am   BACKBONE|DICT|INTERRES
    85   44   45 1    
    86   44  110 1    
    87   45   46 1    
    88   45   47 1    
    89   45  111 1    
    90   46  112 1    
    91   46  113 1    
    92   46  114 1    
    93   47   48 2    
    94   47   49 am   BACKBONE|DICT|INTERRES
    95   49   50 1    
    96   49  115 1    
    97   50   51 1    
    98   50   52 1    
    99   50  116 1    
   100   51  117 1    
   101   51  118 1    
   102   51  119 1    
   103   52   53 2    
   104   52   54 am   BACKBONE|DICT|INTERRES
   105   54   55 1    
   106   54  120 1    
   107   55   56 1    
   108   55   57 1    
   109   55  121 1    
   110   56  122 1    
   111   56  123 1    
   112   56  124 1    
   113   57   58 2    
   114   57   59 am   BACKBONE|DICT|INTERRES
   115   59   60 1    
   116   59  125 1    
   117   60   61 1    
   118   60   62 1    
   119   60  126 1    
   120   61  127 1    
   121   61  128 1    
   122   61  129 1    
   123   62   63 2    
   124   62   64 am   BACKBONE|DICT|INTERRES
   125   64   65 1    
   126   64  130 1    
   127   65   66 1    
   128   65   69 1    
   129   65  131 1    
   130   66   67 am   BACKBONE|DICT|INTERRES
   131   66   68 2    
   132   67  132 1    
   133   67  133 1    
   134   69   70 1    
   135   69  134 1    
   136   69  135 1    
   137   70   71 1    
   138   71  136 1    
   139   71  137 1    
@<TRIPOS>SUBSTRUCTURE
     1 UNK         1 GROUP             0       ****    0 ROOT    
