@<TRIPOS>MOLECULE
3R136
137   139    1
SMALL
USER_CHARGES


@<TRIPOS>ATOM
      1 CA         25.6237   22.9469    0.7375 C.3       0 UNK        -0.1979 
      2 C          26.6058   22.0006    0.0637 C.2       0 UNK         0.4864 
      3 O          26.2260   21.2568   -0.8426 O.2       0 UNK        -0.5359 
      4 N          27.8755   22.0339    0.4823 N.am      1 UNK        -0.4318 
      5 CA         28.9983   21.2551   -0.0548 C.3       1 UNK         0.0824 
      6 C6         30.1142   21.0554    1.0112 C.3       12 UNK        -0.0944 
      7 S7         30.5184   22.5596    1.9767 S.3       12 UNK        -0.2672 
      8 C8         29.8241   22.0982    3.5942 C.3       12 UNK         0.0333 
      9 C9         29.8087   23.2665    4.5684 C.ar      12 UNK        -0.0807 
     10 C10        31.0059   23.7549    5.0994 C.ar      12 UNK        -0.0894 
     11 C11        30.9962   24.7933    6.0353 C.ar      12 UNK        -0.0804 
     12 C12        29.7759   25.3370    6.4489 C.ar      12 UNK        -0.0824 
     13 C13        28.5718   24.8606    5.9205 C.ar      12 UNK        -0.0762 
     14 C14        28.5952   23.8296    4.9762 C.ar      12 UNK        -0.0782 
     15 C15        27.2410   25.4312    6.3905 C.3       12 UNK         0.0230 
     16 S16        26.5251   26.5835    5.1766 S.3       12 UNK        -0.2608 
     17 C17        27.6139   28.0389    5.3497 C.3       12 UNK        -0.0989 
     18 CA         28.7068   28.1051    4.2501 C.3       5 UNK         0.0716 
     19 N          28.1041   28.0676    2.9118 N.am      5 UNK        -0.4135 
     20 C          28.7442   27.9633    1.7414 C.2       4 UNK         0.5031 
     21 O          29.9715   27.9571    1.6195 O.2       4 UNK        -0.5229 
     22 CA         27.8345   27.8552    0.5016 C.3       4 UNK         0.0329 
     23 CB         27.1158   29.1828    0.2090 C.3       4 UNK        -0.2001 
     24 N          28.5876   27.4571   -0.6874 N.am      4 UNK        -0.4303 
     25 C          28.9415   26.1990   -0.9680 C.2       3 UNK         0.5044 
     26 O          28.5936   25.2202   -0.3009 O.2       3 UNK        -0.5152 
     27 CA         29.8528   26.0211   -2.1946 C.3       3 UNK         0.0319 
     28 CB         31.3150   26.3083   -1.8215 C.3       3 UNK        -0.2001 
     29 N          29.7605   24.6569   -2.7042 N.am      3 UNK        -0.4354 
     30 C          28.7905   24.1939   -3.4991 C.2       2 UNK         0.4964 
     31 O          27.9630   24.9113   -4.0627 O.2       2 UNK        -0.5047 
     32 CA         28.6999   22.6655   -3.6578 C.3       2 UNK         0.0288 
     33 CB         29.8381   22.1067   -4.5355 C.3       2 UNK        -0.2113 
     34 N          28.5958   21.9702   -2.3659 N.am      2 UNK        -0.4145 
     35 C          29.5052   21.8603   -1.3845 C.2       1 UNK         0.5006 
     36 O          30.6709   22.2493   -1.4903 O.2       1 UNK        -0.5103 
     37 C          29.6409   29.3158    4.4796 C.2       5 UNK         0.5055 
     38 O          29.7074   30.2224    3.6463 O.2       5 UNK        -0.5220 
     39 N          30.3346   29.3129    5.6287 N.am      6 UNK        -0.4450 
     40 CA         31.3604   30.2745    6.0576 C.3       6 UNK         0.0367 
     41 CB         31.6993   30.0343    7.5388 C.3       6 UNK        -0.1929 
     42 C          31.0178   31.7571    5.8353 C.2       6 UNK         0.5070 
     43 O          31.8333   32.4941    5.2824 O.2       6 UNK        -0.5237 
     44 N          29.8084   32.1569    6.2445 N.am      7 UNK        -0.4739 
     45 CA         29.3110   33.5301    6.1242 C.3       7 UNK         0.0276 
     46 CB         28.1458   33.7190    7.1102 C.3       7 UNK        -0.1927 
     47 C          28.8741   33.9187    4.6988 C.2       7 UNK         0.5013 
     48 O          28.6928   35.1097    4.4409 O.2       7 UNK        -0.5193 
     49 N          28.6798   32.9292    3.8175 N.am      8 UNK        -0.4253 
     50 CA         28.1486   33.1076    2.4678 C.3       8 UNK         0.0242 
     51 CB         27.0265   32.0843    2.2349 C.3       8 UNK        -0.2000 
     52 C          29.2388   32.9819    1.3948 C.2       8 UNK         0.4948 
     53 O          29.3003   33.8378    0.5110 O.2       8 UNK        -0.5275 
     54 N          30.0689   31.9320    1.4717 N.am      9 UNK        -0.4246 
     55 CA         31.0977   31.6256    0.4718 C.3       9 UNK         0.0261 
     56 CB         30.4849   30.8344   -0.7014 C.3       9 UNK        -0.1959 
     57 C          32.3214   30.9190    1.0763 C.2       9 UNK         0.5033 
     58 O          32.9695   30.1354    0.3792 O.2       9 UNK        -0.5390 
     59 N          32.6363   31.2064    2.3494 N.am      10 UNK        -0.4215 
     60 CA         33.8403   30.7606    3.0702 C.3       10 UNK         0.0240 
     61 CB         35.0907   31.4620    2.4952 C.3       10 UNK        -0.1982 
     62 C          34.0162   29.2274    3.1539 C.2       10 UNK         0.4970 
     63 O          35.1517   28.7596    3.2537 O.2       10 UNK        -0.4916 
     64 N          32.9030   28.4803    3.1028 N.am      11 UNK        -0.4279 
     65 CA         32.8501   27.0075    3.0280 C.3       11 UNK         0.1003 
     66 C          33.3487   26.4308    1.6657 C.2       11 UNK         0.5709 
     67 N          33.5191   27.2321    0.6190 N.am      11 UNK        -0.7358 
     68 O          33.5786   25.2300    1.5449 O.2       11 UNK        -0.4999 
     69 C69        33.5014   26.2895    4.2490 C.3       12 UNK        -0.0954 
     70 S70        32.8461   26.8546    5.8553 S.3       12 UNK        -0.2268 
     71 C71        32.3000   25.3027    6.6306 C.3       12 UNK         0.0203 
     72 H72        26.1103   23.5697    1.4884 H         1 UNK         0.0888 
     73 H73        25.1702   23.6048   -0.0033 H         1 UNK         0.0888 
     74 H74        24.8304   22.3812    1.2252 H         1 UNK         0.0888 
     75 H75        28.1496   22.7236    1.1692 H         1 UNK         0.3017 
     76 H76        28.6272   20.2599   -0.3097 H         1 UNK         0.0873 
     77 H77        29.8006   20.2714    1.7020 H         1 UNK         0.0745 
     78 H78        31.0310   20.6727    0.5586 H         1 UNK         0.0745 
     79 H79        30.4126   21.2826    4.0172 H         1 UNK         0.0705 
     80 H80        28.8144   21.7086    3.4539 H         1 UNK         0.0705 
     81 H81        31.9441   23.3162    4.7879 H         1 UNK         0.1334 
     82 H82        29.7660   26.1248    7.1892 H         1 UNK         0.1417 
     83 H83        27.6632   23.4554    4.5744 H         1 UNK         0.1562 
     84 H84        27.3470   25.9292    7.3556 H         1 UNK         0.0748 
     85 H85        26.5369   24.6135    6.5516 H         1 UNK         0.0748 
     86 H86        28.0490   28.0281    6.3501 H         1 UNK         0.0940 
     87 H87        26.9853   28.9311    5.3112 H         1 UNK         0.0940 
     88 H88        29.3346   27.2155    4.3277 H         1 UNK         0.0703 
     89 H89        27.0953   28.0674    2.9034 H         1 UNK         0.3081 
     90 H90        27.0768   27.0943    0.7028 H         1 UNK         0.0719 
     91 H91        27.8132   30.0162    0.1280 H         1 UNK         0.0809 
     92 H92        26.5472   29.1312   -0.7197 H         1 UNK         0.0809 
     93 H93        26.4042   29.4230    0.9989 H         1 UNK         0.0809 
     94 H94        28.9512   28.2026   -1.2613 H         1 UNK         0.2990 
     95 H95        29.5417   26.7201   -2.9740 H         1 UNK         0.0690 
     96 H96        31.9740   26.2023   -2.6833 H         1 UNK         0.0788 
     97 H97        31.6677   25.6304   -1.0425 H         1 UNK         0.0788 
     98 H98        31.4322   27.3258   -1.4452 H         1 UNK         0.0788 
     99 H99        30.3323   23.9605   -2.2331 H         1 UNK         0.2993 
    100 H100       27.7615   22.4609   -4.1761 H         1 UNK         0.0949 
    101 H101       30.8232   22.2987   -4.1098 H         1 UNK         0.0767 
    102 H102       29.7376   21.0303   -4.6744 H         1 UNK         0.0767 
    103 H103       29.8216   22.5645   -5.5254 H         1 UNK         0.0767 
    104 H104       27.6598   21.6518   -2.1266 H         1 UNK         0.3013 
    105 H105       30.2203   28.5187    6.2403 H         1 UNK         0.3121 
    106 H106       32.2545   30.0530    5.4776 H         1 UNK         0.0774 
    107 H107       32.4728   30.7245    7.8791 H         1 UNK         0.0815 
    108 H108       30.8307   30.1770    8.1826 H         1 UNK         0.0815 
    109 H109       32.0770   29.0268    7.7087 H         1 UNK         0.0815 
    110 H110       29.1945   31.4811    6.6760 H         1 UNK         0.2987 
    111 H111       30.1133   34.2143    6.4105 H         1 UNK         0.0949 
    112 H112       27.7702   34.7430    7.0807 H         1 UNK         0.0806 
    113 H113       27.3090   33.0590    6.8780 H         1 UNK         0.0806 
    114 H114       28.4570   33.5214    8.1361 H         1 UNK         0.0806 
    115 H115       28.9302   31.9827    4.0831 H         1 UNK         0.3010 
    116 H116       27.7079   34.1019    2.3651 H         1 UNK         0.0829 
    117 H117       26.1808   32.2721    2.8965 H         1 UNK         0.0813 
    118 H118       26.6535   32.1333    1.2109 H         1 UNK         0.0813 
    119 H119       27.3692   31.0665    2.4184 H         1 UNK         0.0813 
    120 H120       29.9486   31.2557    2.2273 H         1 UNK         0.3038 
    121 H121       31.4845   32.5655    0.0724 H         1 UNK         0.0769 
    122 H122       31.2069   30.7097   -1.5094 H         1 UNK         0.0811 
    123 H123       29.6174   31.3421   -1.1225 H         1 UNK         0.0811 
    124 H124       30.1800   29.8385   -0.3843 H         1 UNK         0.0811 
    125 H125       32.0389   31.8457    2.8583 H         1 UNK         0.3204 
    126 H126       33.7343   31.1067    4.0971 H         1 UNK         0.0748 
    127 H127       35.9710   31.2644    3.1082 H         1 UNK         0.0771 
    128 H128       35.3154   31.1214    1.4838 H         1 UNK         0.0771 
    129 H129       34.9594   32.5436    2.4638 H         1 UNK         0.0771 
    130 H130       32.0186   28.9455    2.9531 H         1 UNK         0.2980 
    131 H131       31.7899   26.7575    3.0564 H         1 UNK         0.0545 
    132 H132       33.8447   26.8395   -0.2481 H         1 UNK         0.3459 
    133 H133       33.3150   28.2254    0.6773 H         1 UNK         0.3459 
    134 H134       33.3515   25.2124    4.1709 H         1 UNK         0.0616 
    135 H135       34.5823   26.4331    4.2540 H         1 UNK         0.0616 
    136 H136       33.0884   24.5534    6.5444 H         1 UNK         0.0634 
    137 H137       32.1648   25.4773    7.6990 H         1 UNK         0.0634 
@<TRIPOS>BOND
     1    1    2 1    
     2    1   72 1    
     3    1   73 1    
     4    1   74 1    
     5    2    3 2    
     6    2    4 am   BACKBONE|DICT|INTERRES
     7    4    5 1    
     8    4   75 1    
     9    5    6 1    
    10    5   35 1    
    11    5   76 1    
    12    6    7 1    
    13    6   77 1    
    14    6   78 1    
    15    7    8 1    
    16    8    9 1    
    17    8   79 1    
    18    8   80 1    
    19    9   10 ar   
    20    9   14 ar   
    21   10   11 ar   
    22   10   81 1    
    23   11   12 ar   
    24   11   71 1    
    25   12   13 ar   
    26   12   82 1    
    27   13   14 ar   
    28   13   15 1    
    29   14   83 1    
    30   15   16 1    
    31   15   84 1    
    32   15   85 1    
    33   16   17 1    
    34   17   18 1    
    35   17   86 1    
    36   17   87 1    
    37   18   19 1    
    38   18   37 1    
    39   18   88 1    
    40   19   20 am   BACKBONE|DICT|INTERRES
    41   19   89 1    
    42   20   21 2    
    43   20   22 1    
    44   22   23 1    
    45   22   24 1    
    46   22   90 1    
    47   23   91 1    
    48   23   92 1    
    49   23   93 1    
    50   24   25 am   BACKBONE|DICT|INTERRES
    51   24   94 1    
    52   25   26 2    
    53   25   27 1    
    54   27   28 1    
    55   27   29 1    
    56   27   95 1    
    57   28   96 1    
    58   28   97 1    
    59   28   98 1    
    60   29   30 am   BACKBONE|DICT|INTERRES
    61   29   99 1    
    62   30   31 2    
    63   30   32 1    
    64   32   33 1    
    65   32   34 1    
    66   32  100 1    
    67   33  101 1    
    68   33  102 1    
    69   33  103 1    
    70   34   35 am   BACKBONE|DICT|INTERRES
    71   34  104 1    
    72   35   36 2    
    73   37   38 2    
    74   37   39 am   BACKBONE|DICT|INTERRES
    75   39   40 1    
    76   39  105 1    
    77   40   41 1    
    78   40   42 1    
    79   40  106 1    
    80   41  107 1    
    81   41  108 1    
    82   41  109 1    
    83   42   43 2    
    84   42   44 am   BACKBONE|DICT|INTERRES
    85   44   45 1    
    86   44  110 1    
    87   45   46 1    
    88   45   47 1    
    89   45  111 1    
    90   46  112 1    
    91   46  113 1    
    92   46  114 1    
    93   47   48 2    
    94   47   49 am   BACKBONE|DICT|INTERRES
    95   49   50 1    
    96   49  115 1    
    97   50   51 1    
    98   50   52 1    
    99   50  116 1    
   100   51  117 1    
   101   51  118 1    
   102   51  119 1    
   103   52   53 2    
   104   52   54 am   BACKBONE|DICT|INTERRES
   105   54   55 1    
   106   54  120 1    
   107   55   56 1    
   108   55   57 1    
   109   55  121 1    
   110   56  122 1    
   111   56  123 1    
   112   56  124 1    
   113   57   58 2    
   114   57   59 am   BACKBONE|DICT|INTERRES
   115   59   60 1    
   116   59  125 1    
   117   60   61 1    
   118   60   62 1    
   119   60  126 1    
   120   61  127 1    
   121   61  128 1    
   122   61  129 1    
   123   62   63 2    
   124   62   64 am   BACKBONE|DICT|INTERRES
   125   64   65 1    
   126   64  130 1    
   127   65   66 1    
   128   65   69 1    
   129   65  131 1    
   130   66   67 am   BACKBONE|DICT|INTERRES
   131   66   68 2    
   132   67  132 1    
   133   67  133 1    
   134   69   70 1    
   135   69  134 1    
   136   69  135 1    
   137   70   71 1    
   138   71  136 1    
   139   71  137 1    
@<TRIPOS>SUBSTRUCTURE
     1 UNK         1 GROUP             0       ****    0 ROOT    
