@<TRIPOS>MOLECULE
3R136
137   139    1
SMALL
USER_CHARGES


@<TRIPOS>ATOM
      1 CA         29.2055   28.0480   -4.9522 C.3       0 UNK        -0.1979 
      2 C          28.8228   27.7456   -3.5110 C.2       0 UNK         0.4864 
      3 O          27.6963   28.0349   -3.1071 O.2       0 UNK        -0.5359 
      4 N          29.7556   27.1740   -2.7363 N.am      1 UNK        -0.4318 
      5 CA         29.5626   26.7736   -1.3388 C.3       1 UNK         0.0824 
      6 C6         30.9200   26.4785   -0.6555 C.3       12 UNK        -0.0944 
      7 S7         30.7898   26.3899    1.1571 S.3       12 UNK        -0.2672 
      8 C8         31.3310   24.6774    1.4432 C.3       12 UNK         0.0333 
      9 C9         31.1320   24.3003    2.8990 C.ar      12 UNK        -0.0807 
     10 C10        32.1729   24.4323    3.8219 C.ar      12 UNK        -0.0894 
     11 C11        31.9631   24.1358    5.1739 C.ar      12 UNK        -0.0804 
     12 C12        30.6945   23.7197    5.5929 C.ar      12 UNK        -0.0824 
     13 C13        29.6465   23.5776    4.6773 C.ar      12 UNK        -0.0762 
     14 C14        29.8857   23.8400    3.3248 C.ar      12 UNK        -0.0782 
     15 C15        28.2731   23.1270    5.1711 C.3       12 UNK         0.0230 
     16 S16        26.8634   23.8420    4.2536 S.3       12 UNK        -0.2608 
     17 C17        27.0964   25.6399    4.4974 C.3       12 UNK        -0.0989 
     18 CA         27.4006   26.4041    3.1726 C.3       5 UNK         0.0716 
     19 N          26.4132   26.1686    2.1121 N.am      5 UNK        -0.4135 
     20 C          25.0821   26.3245    2.1734 C.2       4 UNK         0.5031 
     21 O          24.4636   26.7623    3.1452 O.2       4 UNK        -0.5229 
     22 CA         24.2937   25.8499    0.9416 C.3       4 UNK         0.0329 
     23 CB         24.2949   26.9171   -0.1658 C.3       4 UNK        -0.2001 
     24 N          24.8210   24.5856    0.4199 N.am      4 UNK        -0.4303 
     25 C          24.6300   23.3888    0.9994 C.2       3 UNK         0.5044 
     26 O          23.9115   23.2230    1.9861 O.2       3 UNK        -0.5152 
     27 CA         25.3248   22.1612    0.3747 C.3       3 UNK         0.0319 
     28 CB         24.2924   21.0913   -0.0233 C.3       3 UNK        -0.2001 
     29 N          26.1130   22.5107   -0.8082 N.am      3 UNK        -0.4354 
     30 C          27.4267   22.7679   -0.8180 C.2       2 UNK         0.4964 
     31 O          28.1663   22.6150    0.1557 O.2       2 UNK        -0.5047 
     32 CA         28.0139   23.3173   -2.1374 C.3       2 UNK         0.0288 
     33 CB         26.9548   23.6106   -3.2263 C.3       2 UNK        -0.2113 
     34 N          28.8465   24.5127   -1.9497 N.am      2 UNK        -0.4145 
     35 C          28.5615   25.6058   -1.2210 C.2       1 UNK         0.5006 
     36 O          27.5555   25.7375   -0.5187 O.2       1 UNK        -0.5103 
     37 C          27.6565   27.9042    3.4352 C.2       5 UNK         0.5055 
     38 O          26.8421   28.7598    3.0806 O.2       5 UNK        -0.5220 
     39 N          28.7958   28.1835    4.0867 N.am      6 UNK        -0.4450 
     40 CA         29.2310   29.4915    4.5923 C.3       6 UNK         0.0367 
     41 CB         28.3302   29.9509    5.7583 C.3       6 UNK        -0.1929 
     42 C          29.3952   30.5652    3.4989 C.2       6 UNK         0.5070 
     43 O          28.9965   31.7162    3.6949 O.2       6 UNK        -0.5237 
     44 N          29.9875   30.1819    2.3609 N.am      7 UNK        -0.4739 
     45 CA         30.2728   31.0781    1.2398 C.3       7 UNK         0.0276 
     46 CB         30.3436   30.2691   -0.0659 C.3       7 UNK        -0.1927 
     47 C          31.5466   31.8970    1.5084 C.2       7 UNK         0.5013 
     48 O          32.6119   31.5808    0.9724 O.2       7 UNK        -0.5193 
     49 N          31.4049   32.9273    2.3550 N.am      8 UNK        -0.4253 
     50 CA         32.4300   33.8918    2.7680 C.3       8 UNK         0.0242 
     51 CB         32.7954   34.8301    1.5946 C.3       8 UNK        -0.2000 
     52 C          33.6391   33.1877    3.4084 C.2       8 UNK         0.4948 
     53 O          33.5227   32.7074    4.5358 O.2       8 UNK        -0.5275 
     54 N          34.7607   33.1075    2.6796 N.am      9 UNK        -0.4246 
     55 CA         35.9781   32.4029    3.0889 C.3       9 UNK         0.0261 
     56 CB         37.0932   32.6807    2.0680 C.3       9 UNK        -0.1959 
     57 C          35.7845   30.8865    3.2760 C.2       9 UNK         0.5033 
     58 O          36.5033   30.2879    4.0788 O.2       9 UNK        -0.5390 
     59 N          34.8174   30.2890    2.5648 N.am      10 UNK        -0.4215 
     60 CA         34.4472   28.8823    2.7020 C.3       10 UNK         0.0240 
     61 CB         33.8698   28.3739    1.3709 C.3       10 UNK        -0.1982 
     62 C          33.4803   28.6985    3.8843 C.2       10 UNK         0.4970 
     63 O          32.2823   28.5031    3.6790 O.2       10 UNK        -0.4916 
     64 N          34.0382   28.7693    5.0987 N.am      11 UNK        -0.4279 
     65 CA         33.3831   28.4755    6.3864 C.3       11 UNK         0.1003 
     66 C          32.3470   29.5346    6.8681 C.2       11 UNK         0.5709 
     67 N          32.3060   30.7396    6.3153 N.am      11 UNK        -0.7358 
     68 O          31.5751   29.2738    7.7877 O.2       11 UNK        -0.4999 
     69 C69        32.8282   27.0215    6.4720 C.3       12 UNK        -0.0954 
     70 S70        34.0816   25.7602    6.0660 S.3       12 UNK        -0.2268 
     71 C71        33.1003   24.2295    6.1888 C.3       12 UNK         0.0203 
     72 H72        29.1111   29.1155   -5.1491 H         1 UNK         0.0888 
     73 H73        30.2307   27.7520   -5.1740 H         1 UNK         0.0888 
     74 H74        28.5439   27.5155   -5.6349 H         1 UNK         0.0888 
     75 H75        30.6635   26.9742   -3.1313 H         1 UNK         0.3017 
     76 H76        29.1080   27.6223   -0.8254 H         1 UNK         0.0873 
     77 H77        31.3733   25.5680   -1.0514 H         1 UNK         0.0745 
     78 H78        31.6287   27.2772   -0.8792 H         1 UNK         0.0745 
     79 H79        32.3793   24.5733    1.1592 H         1 UNK         0.0705 
     80 H80        30.7616   24.0003    0.8037 H         1 UNK         0.0705 
     81 H81        33.1430   24.7753    3.4894 H         1 UNK         0.1334 
     82 H82        30.5236   23.4959    6.6373 H         1 UNK         0.1417 
     83 H83        29.0926   23.7195    2.5986 H         1 UNK         0.1562 
     84 H84        28.1514   23.3729    6.2272 H         1 UNK         0.0748 
     85 H85        28.2188   22.0402    5.0985 H         1 UNK         0.0748 
     86 H86        27.8975   25.7935    5.2224 H         1 UNK         0.0940 
     87 H87        26.1971   26.0352    4.9724 H         1 UNK         0.0940 
     88 H88        28.3314   26.0129    2.7660 H         1 UNK         0.0703 
     89 H89        26.8045   25.8696    1.2224 H         1 UNK         0.3081 
     90 H90        23.2580   25.6891    1.2492 H         1 UNK         0.0719 
     91 H91        25.3007   27.1327   -0.5275 H         1 UNK         0.0809 
     92 H92        23.6922   26.6044   -1.0185 H         1 UNK         0.0809 
     93 H93        23.8755   27.8549    0.2010 H         1 UNK         0.0809 
     94 H94        25.4751   24.6520   -0.3479 H         1 UNK         0.2990 
     95 H95        25.9756   21.7368    1.1422 H         1 UNK         0.0690 
     96 H96        24.7778   20.2082   -0.4395 H         1 UNK         0.0788 
     97 H97        23.5853   21.4671   -0.7639 H         1 UNK         0.0788 
     98 H98        23.7147   20.7621    0.8415 H         1 UNK         0.0788 
     99 H99        25.5949   22.6565   -1.6634 H         1 UNK         0.2993 
    100 H100       28.6742   22.5355   -2.5161 H         1 UNK         0.0949 
    101 H101       26.2493   24.3817   -2.9131 H         1 UNK         0.0767 
    102 H102       27.4288   23.9603   -4.1438 H         1 UNK         0.0767 
    103 H103       26.3887   22.7164   -3.4909 H         1 UNK         0.0767 
    104 H104       29.7149   24.5133   -2.4649 H         1 UNK         0.3013 
    105 H105       29.4385   27.4242    4.2691 H         1 UNK         0.3121 
    106 H106       30.2255   29.3331    5.0023 H         1 UNK         0.0774 
    107 H107       28.7222   30.8582    6.2194 H         1 UNK         0.0815 
    108 H108       27.3148   30.1670    5.4246 H         1 UNK         0.0815 
    109 H109       28.2755   29.1926    6.5392 H         1 UNK         0.0815 
    110 H110       30.3692   29.2454    2.3123 H         1 UNK         0.2987 
    111 H111       29.4485   31.7866    1.1282 H         1 UNK         0.0949 
    112 H112       30.6411   30.9013   -0.9036 H         1 UNK         0.0806 
    113 H113       31.0595   29.4521   -0.0038 H         1 UNK         0.0806 
    114 H114       29.3695   29.8490   -0.3128 H         1 UNK         0.0806 
    115 H115       30.5070   33.0129    2.8191 H         1 UNK         0.3010 
    116 H116       31.9842   34.5043    3.5534 H         1 UNK         0.0829 
    117 H117       31.9230   35.3940    1.2641 H         1 UNK         0.0813 
    118 H118       33.5496   35.5598    1.8931 H         1 UNK         0.0813 
    119 H119       33.1785   34.2889    0.7288 H         1 UNK         0.0813 
    120 H120       34.7529   33.5041    1.7510 H         1 UNK         0.3038 
    121 H121       36.2869   32.8114    4.0534 H         1 UNK         0.0769 
    122 H122       38.0218   32.1891    2.3619 H         1 UNK         0.0811 
    123 H123       37.3047   33.7473    1.9901 H         1 UNK         0.0811 
    124 H124       36.8314   32.3149    1.0743 H         1 UNK         0.0811 
    125 H125       34.2200   30.8549    1.9675 H         1 UNK         0.3204 
    126 H126       35.3416   28.2902    2.9089 H         1 UNK         0.0748 
    127 H127       33.6389   27.3100    1.4326 H         1 UNK         0.0771 
    128 H128       32.9502   28.8927    1.1072 H         1 UNK         0.0771 
    129 H129       34.5768   28.5065    0.5522 H         1 UNK         0.0771 
    130 H130       35.0202   29.0105    5.1499 H         1 UNK         0.2980 
    131 H131       34.1852   28.5449    7.1215 H         1 UNK         0.0545 
    132 H132       32.9442   31.0239    5.5825 H         1 UNK         0.3459 
    133 H133       31.6407   31.4077    6.6671 H         1 UNK         0.3459 
    134 H134       31.9730   26.9000    5.8054 H         1 UNK         0.0616 
    135 H135       32.4640   26.8080    7.4783 H         1 UNK         0.0616 
    136 H136       32.7183   24.1478    7.2076 H         1 UNK         0.0634 
    137 H137       33.7663   23.3787    6.0405 H         1 UNK         0.0634 
@<TRIPOS>BOND
     1    1    2 1    
     2    1   72 1    
     3    1   73 1    
     4    1   74 1    
     5    2    3 2    
     6    2    4 am   BACKBONE|DICT|INTERRES
     7    4    5 1    
     8    4   75 1    
     9    5    6 1    
    10    5   35 1    
    11    5   76 1    
    12    6    7 1    
    13    6   77 1    
    14    6   78 1    
    15    7    8 1    
    16    8    9 1    
    17    8   79 1    
    18    8   80 1    
    19    9   10 ar   
    20    9   14 ar   
    21   10   11 ar   
    22   10   81 1    
    23   11   12 ar   
    24   11   71 1    
    25   12   13 ar   
    26   12   82 1    
    27   13   14 ar   
    28   13   15 1    
    29   14   83 1    
    30   15   16 1    
    31   15   84 1    
    32   15   85 1    
    33   16   17 1    
    34   17   18 1    
    35   17   86 1    
    36   17   87 1    
    37   18   19 1    
    38   18   37 1    
    39   18   88 1    
    40   19   20 am   BACKBONE|DICT|INTERRES
    41   19   89 1    
    42   20   21 2    
    43   20   22 1    
    44   22   23 1    
    45   22   24 1    
    46   22   90 1    
    47   23   91 1    
    48   23   92 1    
    49   23   93 1    
    50   24   25 am   BACKBONE|DICT|INTERRES
    51   24   94 1    
    52   25   26 2    
    53   25   27 1    
    54   27   28 1    
    55   27   29 1    
    56   27   95 1    
    57   28   96 1    
    58   28   97 1    
    59   28   98 1    
    60   29   30 am   BACKBONE|DICT|INTERRES
    61   29   99 1    
    62   30   31 2    
    63   30   32 1    
    64   32   33 1    
    65   32   34 1    
    66   32  100 1    
    67   33  101 1    
    68   33  102 1    
    69   33  103 1    
    70   34   35 am   BACKBONE|DICT|INTERRES
    71   34  104 1    
    72   35   36 2    
    73   37   38 2    
    74   37   39 am   BACKBONE|DICT|INTERRES
    75   39   40 1    
    76   39  105 1    
    77   40   41 1    
    78   40   42 1    
    79   40  106 1    
    80   41  107 1    
    81   41  108 1    
    82   41  109 1    
    83   42   43 2    
    84   42   44 am   BACKBONE|DICT|INTERRES
    85   44   45 1    
    86   44  110 1    
    87   45   46 1    
    88   45   47 1    
    89   45  111 1    
    90   46  112 1    
    91   46  113 1    
    92   46  114 1    
    93   47   48 2    
    94   47   49 am   BACKBONE|DICT|INTERRES
    95   49   50 1    
    96   49  115 1    
    97   50   51 1    
    98   50   52 1    
    99   50  116 1    
   100   51  117 1    
   101   51  118 1    
   102   51  119 1    
   103   52   53 2    
   104   52   54 am   BACKBONE|DICT|INTERRES
   105   54   55 1    
   106   54  120 1    
   107   55   56 1    
   108   55   57 1    
   109   55  121 1    
   110   56  122 1    
   111   56  123 1    
   112   56  124 1    
   113   57   58 2    
   114   57   59 am   BACKBONE|DICT|INTERRES
   115   59   60 1    
   116   59  125 1    
   117   60   61 1    
   118   60   62 1    
   119   60  126 1    
   120   61  127 1    
   121   61  128 1    
   122   61  129 1    
   123   62   63 2    
   124   62   64 am   BACKBONE|DICT|INTERRES
   125   64   65 1    
   126   64  130 1    
   127   65   66 1    
   128   65   69 1    
   129   65  131 1    
   130   66   67 am   BACKBONE|DICT|INTERRES
   131   66   68 2    
   132   67  132 1    
   133   67  133 1    
   134   69   70 1    
   135   69  134 1    
   136   69  135 1    
   137   70   71 1    
   138   71  136 1    
   139   71  137 1    
@<TRIPOS>SUBSTRUCTURE
     1 UNK         1 GROUP             0       ****    0 ROOT    
