@<TRIPOS>MOLECULE
3R136
137   139    1
SMALL
USER_CHARGES


@<TRIPOS>ATOM
      1 CA         28.6404   23.2835    3.4449 C.3       0 UNK        -0.1979 
      2 C          28.4726   22.5246    2.1394 C.2       0 UNK         0.4864 
      3 O          27.4059   21.9620    1.8908 O.2       0 UNK        -0.5359 
      4 N          29.5083   22.5172    1.2880 N.am      1 UNK        -0.4318 
      5 CA         29.5195   21.8101   -0.0028 C.3       1 UNK         0.0824 
      6 C6         30.9300   21.7549   -0.6378 C.3       12 UNK        -0.0944 
      7 S7         32.1175   20.8466    0.4095 S.3       12 UNK        -0.2672 
      8 C8         33.3554   22.1240    0.7973 C.3       12 UNK         0.0333 
      9 C9         32.7944   23.2061    1.7076 C.ar      12 UNK        -0.0807 
     10 C10        32.6106   22.9536    3.0696 C.ar      12 UNK        -0.0894 
     11 C11        32.1073   23.9469    3.9152 C.ar      12 UNK        -0.0804 
     12 C12        31.7827   25.2011    3.3893 C.ar      12 UNK        -0.0824 
     13 C13        31.9647   25.4635    2.0280 C.ar      12 UNK        -0.0762 
     14 C14        32.4748   24.4651    1.1937 C.ar      12 UNK        -0.0782 
     15 C15        31.6386   26.8302    1.4507 C.3       12 UNK         0.0230 
     16 S16        30.1461   26.7817    0.4130 S.3       12 UNK        -0.2608 
     17 C17        28.8257   26.8113    1.6690 C.3       12 UNK        -0.0989 
     18 CA         27.8560   28.0106    1.4861 C.3       5 UNK         0.0716 
     19 N          26.5150   27.6509    1.9601 N.am      5 UNK        -0.4135 
     20 C          25.3492   28.1982    1.5960 C.2       4 UNK         0.5031 
     21 O          25.2628   29.1846    0.8616 O.2       4 UNK        -0.5229 
     22 CA         24.0789   27.5088    2.1350 C.3       4 UNK         0.0329 
     23 CB         22.7928   28.2788    1.7824 C.3       4 UNK        -0.2001 
     24 N          23.9687   26.1398    1.6238 N.am      4 UNK        -0.4303 
     25 C          24.7021   25.0972    2.0351 C.2       3 UNK         0.5044 
     26 O          25.5064   25.1587    2.9671 O.2       3 UNK        -0.5152 
     27 CA         24.5800   23.7886    1.2393 C.3       3 UNK         0.0319 
     28 CB         23.1779   23.5405    0.6377 C.3       3 UNK        -0.2001 
     29 N          25.6400   23.7082    0.2274 N.am      3 UNK        -0.4354 
     30 C          25.8144   24.5036   -0.8428 C.2       2 UNK         0.4964 
     31 O          25.0077   25.3703   -1.1821 O.2       2 UNK        -0.5047 
     32 CA         27.1081   24.3317   -1.6661 C.3       2 UNK         0.0288 
     33 CB         27.6409   25.6869   -2.1677 C.3       2 UNK        -0.2113 
     34 N          28.1638   23.6613   -0.9016 N.am      2 UNK        -0.4145 
     35 C          28.4865   22.3644   -1.0087 C.2       1 UNK         0.5006 
     36 O          27.9810   21.6007   -1.8329 O.2       1 UNK        -0.5103 
     37 C          28.3765   29.3412    2.0884 C.2       5 UNK         0.5055 
     38 O          29.5274   29.4271    2.5199 O.2       5 UNK        -0.5220 
     39 N          27.5163   30.3674    2.1093 N.am      6 UNK        -0.4450 
     40 CA         27.7950   31.7010    2.6467 C.3       6 UNK         0.0367 
     41 CB         26.4684   32.4514    2.8430 C.3       6 UNK        -0.1929 
     42 C          28.7525   32.5238    1.7693 C.2       6 UNK         0.5070 
     43 O          29.4188   33.4197    2.2860 O.2       6 UNK        -0.5237 
     44 N          28.8283   32.2011    0.4694 N.am      7 UNK        -0.4739 
     45 CA         29.6776   32.8699   -0.5246 C.3       7 UNK         0.0276 
     46 CB         29.3655   32.2983   -1.9170 C.3       7 UNK        -0.1927 
     47 C          31.1876   32.7784   -0.2334 C.2       7 UNK         0.5013 
     48 O          31.9371   33.6581   -0.6578 O.2       7 UNK        -0.5193 
     49 N          31.6011   31.7349    0.4978 N.am      8 UNK        -0.4253 
     50 CA         32.9745   31.5316    0.9629 C.3       8 UNK         0.0242 
     51 CB         33.2213   30.0220    1.1027 C.3       8 UNK        -0.2000 
     52 C          33.2745   32.2433    2.2961 C.2       8 UNK         0.4948 
     53 O          34.4055   32.1483    2.7729 O.2       8 UNK        -0.5275 
     54 N          32.2702   32.8926    2.9064 N.am      9 UNK        -0.4246 
     55 CA         32.2610   33.5600    4.2168 C.3       9 UNK         0.0261 
     56 CB         33.3221   34.6747    4.3072 C.3       9 UNK        -0.1959 
     57 C          32.3454   32.6057    5.4231 C.2       9 UNK         0.5033 
     58 O          31.6799   32.8629    6.4277 O.2       9 UNK        -0.5390 
     59 N          33.1275   31.5269    5.3165 N.am      10 UNK        -0.4215 
     60 CA         33.2848   30.4835    6.3248 C.3       10 UNK         0.0240 
     61 CB         34.3252   30.9255    7.3720 C.3       10 UNK        -0.1982 
     62 C          33.7055   29.1723    5.6492 C.2       10 UNK         0.4970 
     63 O          34.1845   29.1885    4.5132 O.2       10 UNK        -0.4916 
     64 N          33.5391   28.0655    6.3818 N.am      11 UNK        -0.4279 
     65 CA         33.9976   26.7192    6.0028 C.3       11 UNK         0.1003 
     66 C          35.5488   26.5568    6.0232 C.2       11 UNK         0.5709 
     67 N          36.2830   27.3479    6.7983 N.am      11 UNK        -0.7358 
     68 O          36.0981   25.7222    5.3088 O.2       11 UNK        -0.4999 
     69 C69        33.2722   25.6619    6.8794 C.3       12 UNK        -0.0954 
     70 S70        33.4449   23.9284    6.3323 S.3       12 UNK        -0.2268 
     71 C71        31.9111   23.6507    5.3932 C.3       12 UNK         0.0203 
     72 H72        29.1978   24.2054    3.2939 H         1 UNK         0.0888 
     73 H73        29.1681   22.6698    4.1741 H         1 UNK         0.0888 
     74 H74        27.6680   23.5482    3.8603 H         1 UNK         0.0888 
     75 H75        30.3775   22.9645    1.5502 H         1 UNK         0.3017 
     76 H76        29.2133   20.7816    0.2024 H         1 UNK         0.0873 
     77 H77        31.2997   22.7591   -0.8503 H         1 UNK         0.0745 
     78 H78        30.8943   21.2392   -1.5997 H         1 UNK         0.0745 
     79 H79        34.2075   21.6497    1.2863 H         1 UNK         0.0705 
     80 H80        33.7383   22.5521   -0.1306 H         1 UNK         0.0705 
     81 H81        32.8632   21.9818    3.4723 H         1 UNK         0.1334 
     82 H82        31.3946   25.9725    4.0406 H         1 UNK         0.1417 
     83 H83        32.6221   24.6740    0.1424 H         1 UNK         0.1562 
     84 H84        32.4786   27.1659    0.8418 H         1 UNK         0.0748 
     85 H85        31.5159   27.5693    2.2432 H         1 UNK         0.0748 
     86 H86        29.2404   26.7850    2.6784 H         1 UNK         0.0940 
     87 H87        28.2841   25.8713    1.5544 H         1 UNK         0.0940 
     88 H88        27.7558   28.1938    0.4140 H         1 UNK         0.0703 
     89 H89        26.4572   26.8366    2.5642 H         1 UNK         0.3081 
     90 H90        24.1601   27.4744    3.2237 H         1 UNK         0.0719 
     91 H91        22.6426   28.3436    0.7039 H         1 UNK         0.0809 
     92 H92        21.9135   27.8018    2.2156 H         1 UNK         0.0809 
     93 H93        22.8299   29.2984    2.1685 H         1 UNK         0.0809 
     94 H94        23.4089   26.0150    0.7918 H         1 UNK         0.2990 
     95 H95        24.7733   22.9816    1.9479 H         1 UNK         0.0690 
     96 H96        23.1208   22.5510    0.1842 H         1 UNK         0.0788 
     97 H97        22.9058   24.2661   -0.1285 H         1 UNK         0.0788 
     98 H98        22.4110   23.5820    1.4123 H         1 UNK         0.0788 
     99 H99        26.3692   23.0393    0.4521 H         1 UNK         0.2993 
    100 H100       26.8447   23.7346   -2.5416 H         1 UNK         0.0949 
    101 H101       26.9404   26.1493   -2.8643 H         1 UNK         0.0767 
    102 H102       27.7911   26.3888   -1.3479 H         1 UNK         0.0767 
    103 H103       28.5895   25.5739   -2.6930 H         1 UNK         0.0767 
    104 H104       28.6363   24.2151   -0.2014 H         1 UNK         0.3013 
    105 H105       26.5962   30.2088    1.7039 H         1 UNK         0.3121 
    106 H106       28.2695   31.5818    3.6233 H         1 UNK         0.0774 
    107 H107       25.8087   31.9187    3.5280 H         1 UNK         0.0815 
    108 H108       25.9366   32.5854    1.9001 H         1 UNK         0.0815 
    109 H109       26.6395   33.4428    3.2652 H         1 UNK         0.0815 
    110 H110       28.2396   31.4525    0.1340 H         1 UNK         0.2987 
    111 H111       29.4150   33.9301   -0.5211 H         1 UNK         0.0949 
    112 H112       29.5823   31.2308   -1.9736 H         1 UNK         0.0806 
    113 H113       28.3180   32.4442   -2.1815 H         1 UNK         0.0806 
    114 H114       29.9623   32.7929   -2.6850 H         1 UNK         0.0806 
    115 H115       30.9106   31.0667    0.8130 H         1 UNK         0.3010 
    116 H116       33.6703   31.9245    0.2184 H         1 UNK         0.0829 
    117 H117       33.0129   29.4956    0.1713 H         1 UNK         0.0813 
    118 H118       34.2592   29.8150    1.3677 H         1 UNK         0.0813 
    119 H119       32.5974   29.5932    1.8869 H         1 UNK         0.0813 
    120 H120       31.3683   32.9075    2.4400 H         1 UNK         0.3038 
    121 H121       31.2843   34.0427    4.2795 H         1 UNK         0.0769 
    122 H122       34.3375   34.2778    4.2996 H         1 UNK         0.0811 
    123 H123       33.2072   35.2427    5.2313 H         1 UNK         0.0811 
    124 H124       33.2294   35.3786    3.4803 H         1 UNK         0.0811 
    125 H125       33.6513   31.3838    4.4551 H         1 UNK         0.3204 
    126 H126       32.3226   30.3159    6.8139 H         1 UNK         0.0748 
    127 H127       34.0231   31.8486    7.8673 H         1 UNK         0.0771 
    128 H128       34.4508   30.1724    8.1506 H         1 UNK         0.0771 
    129 H129       35.3026   31.0958    6.9184 H         1 UNK         0.0771 
    130 H130       33.1439   28.1501    7.3066 H         1 UNK         0.2980 
    131 H131       33.6900   26.5607    4.9682 H         1 UNK         0.0545 
    132 H132       35.8494   28.0412    7.3853 H         1 UNK         0.3459 
    133 H133       37.2853   27.2437    6.7966 H         1 UNK         0.3459 
    134 H134       33.6343   25.7208    7.9074 H         1 UNK         0.0616 
    135 H135       32.2081   25.8956    6.9348 H         1 UNK         0.0616 
    136 H136       31.0922   24.2430    5.8033 H         1 UNK         0.0634 
    137 H137       31.6157   22.6077    5.5174 H         1 UNK         0.0634 
@<TRIPOS>BOND
     1    1    2 1    
     2    1   72 1    
     3    1   73 1    
     4    1   74 1    
     5    2    3 2    
     6    2    4 am   BACKBONE|DICT|INTERRES
     7    4    5 1    
     8    4   75 1    
     9    5    6 1    
    10    5   35 1    
    11    5   76 1    
    12    6    7 1    
    13    6   77 1    
    14    6   78 1    
    15    7    8 1    
    16    8    9 1    
    17    8   79 1    
    18    8   80 1    
    19    9   10 ar   
    20    9   14 ar   
    21   10   11 ar   
    22   10   81 1    
    23   11   12 ar   
    24   11   71 1    
    25   12   13 ar   
    26   12   82 1    
    27   13   14 ar   
    28   13   15 1    
    29   14   83 1    
    30   15   16 1    
    31   15   84 1    
    32   15   85 1    
    33   16   17 1    
    34   17   18 1    
    35   17   86 1    
    36   17   87 1    
    37   18   19 1    
    38   18   37 1    
    39   18   88 1    
    40   19   20 am   BACKBONE|DICT|INTERRES
    41   19   89 1    
    42   20   21 2    
    43   20   22 1    
    44   22   23 1    
    45   22   24 1    
    46   22   90 1    
    47   23   91 1    
    48   23   92 1    
    49   23   93 1    
    50   24   25 am   BACKBONE|DICT|INTERRES
    51   24   94 1    
    52   25   26 2    
    53   25   27 1    
    54   27   28 1    
    55   27   29 1    
    56   27   95 1    
    57   28   96 1    
    58   28   97 1    
    59   28   98 1    
    60   29   30 am   BACKBONE|DICT|INTERRES
    61   29   99 1    
    62   30   31 2    
    63   30   32 1    
    64   32   33 1    
    65   32   34 1    
    66   32  100 1    
    67   33  101 1    
    68   33  102 1    
    69   33  103 1    
    70   34   35 am   BACKBONE|DICT|INTERRES
    71   34  104 1    
    72   35   36 2    
    73   37   38 2    
    74   37   39 am   BACKBONE|DICT|INTERRES
    75   39   40 1    
    76   39  105 1    
    77   40   41 1    
    78   40   42 1    
    79   40  106 1    
    80   41  107 1    
    81   41  108 1    
    82   41  109 1    
    83   42   43 2    
    84   42   44 am   BACKBONE|DICT|INTERRES
    85   44   45 1    
    86   44  110 1    
    87   45   46 1    
    88   45   47 1    
    89   45  111 1    
    90   46  112 1    
    91   46  113 1    
    92   46  114 1    
    93   47   48 2    
    94   47   49 am   BACKBONE|DICT|INTERRES
    95   49   50 1    
    96   49  115 1    
    97   50   51 1    
    98   50   52 1    
    99   50  116 1    
   100   51  117 1    
   101   51  118 1    
   102   51  119 1    
   103   52   53 2    
   104   52   54 am   BACKBONE|DICT|INTERRES
   105   54   55 1    
   106   54  120 1    
   107   55   56 1    
   108   55   57 1    
   109   55  121 1    
   110   56  122 1    
   111   56  123 1    
   112   56  124 1    
   113   57   58 2    
   114   57   59 am   BACKBONE|DICT|INTERRES
   115   59   60 1    
   116   59  125 1    
   117   60   61 1    
   118   60   62 1    
   119   60  126 1    
   120   61  127 1    
   121   61  128 1    
   122   61  129 1    
   123   62   63 2    
   124   62   64 am   BACKBONE|DICT|INTERRES
   125   64   65 1    
   126   64  130 1    
   127   65   66 1    
   128   65   69 1    
   129   65  131 1    
   130   66   67 am   BACKBONE|DICT|INTERRES
   131   66   68 2    
   132   67  132 1    
   133   67  133 1    
   134   69   70 1    
   135   69  134 1    
   136   69  135 1    
   137   70   71 1    
   138   71  136 1    
   139   71  137 1    
@<TRIPOS>SUBSTRUCTURE
     1 UNK         1 GROUP             0       ****    0 ROOT    
