@<TRIPOS>MOLECULE
3R136
137   139    1
SMALL
USER_CHARGES


@<TRIPOS>ATOM
      1 CA         27.7582   24.3150   -2.9872 C.3       0 UNK        -0.1979 
      2 C          28.0371   24.4590   -1.4997 C.2       0 UNK         0.4864 
      3 O          27.8847   25.5538   -0.9551 O.2       0 UNK        -0.5359 
      4 N          28.4488   23.3716   -0.8379 N.am      1 UNK        -0.4318 
      5 CA         28.7297   23.3244    0.6001 C.3       1 UNK         0.0824 
      6 C6         29.4540   22.0197    1.0178 C.3       12 UNK        -0.0944 
      7 S7         30.9379   21.6707    0.0140 S.3       12 UNK        -0.2672 
      8 C8         32.2433   21.5032    1.2775 C.3       12 UNK         0.0333 
      9 C9         32.8401   22.8259    1.7544 C.ar      12 UNK        -0.0807 
     10 C10        33.2357   22.9589    3.0889 C.ar      12 UNK        -0.0894 
     11 C11        33.8865   24.1118    3.5417 C.ar      12 UNK        -0.0804 
     12 C12        34.1170   25.1576    2.6361 C.ar      12 UNK        -0.0824 
     13 C13        33.7286   25.0406    1.2977 C.ar      12 UNK        -0.0762 
     14 C14        33.0929   23.8745    0.8635 C.ar      12 UNK        -0.0782 
     15 C15        34.0566   26.1472    0.3048 C.3       12 UNK         0.0230 
     16 S16        33.0352   27.6299    0.5493 S.3       12 UNK        -0.2608 
     17 C17        31.4015   27.0630   -0.0190 C.3       12 UNK        -0.0989 
     18 CA         30.2771   27.9798    0.5219 C.3       5 UNK         0.0716 
     19 N          29.1495   28.0250   -0.4049 N.am      5 UNK        -0.4135 
     20 C          28.6284   29.1242   -0.9619 C.2       4 UNK         0.5031 
     21 O          29.1067   30.2532   -0.8533 O.2       4 UNK        -0.5229 
     22 CA         27.3381   28.9335   -1.7723 C.3       4 UNK         0.0329 
     23 CB         27.6680   28.4935   -3.2083 C.3       4 UNK        -0.2001 
     24 N          26.4695   27.9329   -1.1501 N.am      4 UNK        -0.4303 
     25 C          25.4073   28.2045   -0.3839 C.2       3 UNK         0.5044 
     26 O          25.0043   29.3411   -0.1369 O.2       3 UNK        -0.5152 
     27 CA         24.6821   26.9987    0.2226 C.3       3 UNK         0.0319 
     28 CB         24.1545   26.0345   -0.8581 C.3       3 UNK        -0.2001 
     29 N          25.5623   26.2965    1.1547 N.am      3 UNK        -0.4354 
     30 C          25.1447   25.5727    2.2022 C.2       2 UNK         0.4964 
     31 O          23.9577   25.4076    2.4898 O.2       2 UNK        -0.5047 
     32 CA         26.2427   24.9439    3.0825 C.3       2 UNK         0.0288 
     33 CB         25.7227   23.8433    4.0326 C.3       2 UNK        -0.2113 
     34 N          27.3904   24.4827    2.2935 N.am      2 UNK        -0.4145 
     35 C          27.4185   23.4901    1.3948 C.2       1 UNK         0.5006 
     36 O          26.4761   22.7270    1.1675 O.2       1 UNK        -0.5103 
     37 C          29.7452   27.5033    1.8863 C.2       5 UNK         0.5055 
     38 O          28.6618   26.9134    1.9421 O.2       5 UNK        -0.5220 
     39 N          30.4825   27.7758    2.9699 N.am      6 UNK        -0.4450 
     40 CA         30.1742   27.4983    4.3826 C.3       6 UNK         0.0367 
     41 CB         30.0136   25.9906    4.6545 C.3       6 UNK        -0.1929 
     42 C          29.0037   28.3182    4.9576 C.2       6 UNK         0.5070 
     43 O          29.1082   28.8119    6.0796 O.2       6 UNK        -0.5237 
     44 N          27.9317   28.4996    4.1771 N.am      7 UNK        -0.4739 
     45 CA         26.8535   29.4580    4.4461 C.3       7 UNK         0.0276 
     46 CB         25.6239   29.0777    3.6071 C.3       7 UNK        -0.1927 
     47 C          27.2751   30.9144    4.1610 C.2       7 UNK         0.5013 
     48 O          26.6305   31.8418    4.6516 O.2       7 UNK        -0.5193 
     49 N          28.3471   31.0819    3.3813 N.am      8 UNK        -0.4253 
     50 CA         29.0102   32.3268    3.0187 C.3       8 UNK         0.0242 
     51 CB         28.2522   33.0044    1.8615 C.3       8 UNK        -0.2000 
     52 C          30.4469   31.9655    2.6144 C.2       8 UNK         0.4948 
     53 O          30.7394   30.7814    2.4337 O.2       8 UNK        -0.5275 
     54 N          31.3073   32.9815    2.4613 N.am      9 UNK        -0.4246 
     55 CA         32.7169   32.8697    2.0607 C.3       9 UNK         0.0261 
     56 CB         32.8289   32.3958    0.5910 C.3       9 UNK        -0.1959 
     57 C          33.5403   32.0329    3.0645 C.2       9 UNK         0.5033 
     58 O          33.4613   32.2971    4.2677 O.2       9 UNK        -0.5390 
     59 N          34.3298   31.0685    2.5699 N.am      10 UNK        -0.4215 
     60 CA         35.1252   30.1431    3.3798 C.3       10 UNK         0.0240 
     61 CB         36.0612   29.3344    2.4668 C.3       10 UNK        -0.1982 
     62 C          34.2313   29.2070    4.2087 C.2       10 UNK         0.4970 
     63 O          33.1660   28.8079    3.7381 O.2       10 UNK        -0.4916 
     64 N          34.6908   28.8864    5.4237 N.am      11 UNK        -0.4279 
     65 CA         33.9803   28.0964    6.4465 C.3       11 UNK         0.1003 
     66 C          32.7448   28.8042    7.0836 C.2       11 UNK         0.5709 
     67 N          32.4372   30.0536    6.7547 N.am      11 UNK        -0.7358 
     68 O          32.0751   28.2209    7.9323 O.2       11 UNK        -0.4999 
     69 C69        33.6569   26.6408    5.9975 C.3       12 UNK        -0.0954 
     70 S70        35.1438   25.6816    5.5763 S.3       12 UNK        -0.2268 
     71 C71        34.3699   24.1328    4.9956 C.3       12 UNK         0.0203 
     72 H72        27.8730   23.2852   -3.3248 H         1 UNK         0.0888 
     73 H73        26.7407   24.6341   -3.2106 H         1 UNK         0.0888 
     74 H74        28.4451   24.9388   -3.5582 H         1 UNK         0.0888 
     75 H75        28.5545   22.4951   -1.3278 H         1 UNK         0.3017 
     76 H76        29.3911   24.1629    0.8312 H         1 UNK         0.0873 
     77 H77        28.7877   21.1598    0.9221 H         1 UNK         0.0745 
     78 H78        29.7325   22.0712    2.0722 H         1 UNK         0.0745 
     79 H79        31.8543   20.9250    2.1172 H         1 UNK         0.0705 
     80 H80        33.0517   20.9085    0.8502 H         1 UNK         0.0705 
     81 H81        33.0725   22.1394    3.7761 H         1 UNK         0.1334 
     82 H82        34.6205   26.0609    2.9499 H         1 UNK         0.1417 
     83 H83        32.8212   23.7719   -0.1781 H         1 UNK         0.1562 
     84 H84        33.9440   25.7994   -0.7233 H         1 UNK         0.0748 
     85 H85        35.1056   26.4249    0.4170 H         1 UNK         0.0748 
     86 H86        31.2368   26.0175    0.2485 H         1 UNK         0.0940 
     87 H87        31.4233   27.0909   -1.1099 H         1 UNK         0.0940 
     88 H88        30.6682   28.9900    0.6476 H         1 UNK         0.0703 
     89 H89        28.6637   27.1383   -0.5244 H         1 UNK         0.3081 
     90 H90        26.8264   29.8971   -1.8218 H         1 UNK         0.0719 
     91 H91        28.1919   27.5371   -3.2297 H         1 UNK         0.0809 
     92 H92        26.7634   28.3927   -3.8081 H         1 UNK         0.0809 
     93 H93        28.3058   29.2269   -3.7036 H         1 UNK         0.0809 
     94 H94        26.7689   26.9642   -1.2388 H         1 UNK         0.2990 
     95 H95        23.8259   27.3920    0.7754 H         1 UNK         0.0690 
     96 H96        23.5569   26.5660   -1.5998 H         1 UNK         0.0788 
     97 H97        23.5174   25.2654   -0.4212 H         1 UNK         0.0788 
     98 H98        24.9642   25.5304   -1.3862 H         1 UNK         0.0788 
     99 H99        26.5593   26.3981    1.0018 H         1 UNK         0.2993 
    100 H100       26.6161   25.7567    3.7071 H         1 UNK         0.0949 
    101 H101       26.5296   23.4264    4.6351 H         1 UNK         0.0767 
    102 H102       24.9787   24.2448    4.7217 H         1 UNK         0.0767 
    103 H103       25.2502   23.0247    3.4893 H         1 UNK         0.0767 
    104 H104       28.1744   25.1301    2.2989 H         1 UNK         0.3013 
    105 H105       31.3492   28.2940    2.8378 H         1 UNK         0.3121 
    106 H106       31.0541   27.8311    4.9287 H         1 UNK         0.0774 
    107 H107       29.0998   25.5897    4.2210 H         1 UNK         0.0815 
    108 H108       29.9712   25.7976    5.7271 H         1 UNK         0.0815 
    109 H109       30.8552   25.4235    4.2557 H         1 UNK         0.0815 
    110 H110       27.9335   28.0310    3.2755 H         1 UNK         0.2987 
    111 H111       26.5831   29.3968    5.5026 H         1 UNK         0.0949 
    112 H112       25.8491   29.0793    2.5406 H         1 UNK         0.0806 
    113 H113       25.2517   28.0895    3.8750 H         1 UNK         0.0806 
    114 H114       24.8067   29.7823    3.7679 H         1 UNK         0.0806 
    115 H115       28.8615   30.2645    3.0746 H         1 UNK         0.3010 
    116 H116       29.0432   32.9858    3.8886 H         1 UNK         0.0829 
    117 H117       27.2234   33.2337    2.1394 H         1 UNK         0.0813 
    118 H118       28.7254   33.9440    1.5748 H         1 UNK         0.0813 
    119 H119       28.2251   32.3680    0.9756 H         1 UNK         0.0813 
    120 H120       30.9866   33.9172    2.6679 H         1 UNK         0.3038 
    121 H121       33.1272   33.8793    2.1093 H         1 UNK         0.0769 
    122 H122       33.8577   32.4474    0.2326 H         1 UNK         0.0811 
    123 H123       32.4781   31.3709    0.4594 H         1 UNK         0.0811 
    124 H124       32.2349   33.0290   -0.0681 H         1 UNK         0.0811 
    125 H125       34.2874   30.8801    1.5796 H         1 UNK         0.3204 
    126 H126       35.7363   30.7397    4.0605 H         1 UNK         0.0748 
    127 H127       36.6801   28.6502    3.0490 H         1 UNK         0.0771 
    128 H128       35.5047   28.7340    1.7476 H         1 UNK         0.0771 
    129 H129       36.7350   29.9861    1.9103 H         1 UNK         0.0771 
    130 H130       35.5784   29.2655    5.7196 H         1 UNK         0.2980 
    131 H131       34.6879   28.0198    7.2728 H         1 UNK         0.0545 
    132 H132       31.6343   30.4844    7.1841 H         1 UNK         0.3459 
    133 H133       32.9604   30.5512    6.0496 H         1 UNK         0.3459 
    134 H134       32.9879   26.6313    5.1381 H         1 UNK         0.0616 
    135 H135       33.1395   26.0993    6.7913 H         1 UNK         0.0616 
    136 H136       35.1053   23.3362    5.1157 H         1 UNK         0.0634 
    137 H137       33.5391   23.8824    5.6571 H         1 UNK         0.0634 
@<TRIPOS>BOND
     1    1    2 1    
     2    1   72 1    
     3    1   73 1    
     4    1   74 1    
     5    2    3 2    
     6    2    4 am   BACKBONE|DICT|INTERRES
     7    4    5 1    
     8    4   75 1    
     9    5    6 1    
    10    5   35 1    
    11    5   76 1    
    12    6    7 1    
    13    6   77 1    
    14    6   78 1    
    15    7    8 1    
    16    8    9 1    
    17    8   79 1    
    18    8   80 1    
    19    9   10 ar   
    20    9   14 ar   
    21   10   11 ar   
    22   10   81 1    
    23   11   12 ar   
    24   11   71 1    
    25   12   13 ar   
    26   12   82 1    
    27   13   14 ar   
    28   13   15 1    
    29   14   83 1    
    30   15   16 1    
    31   15   84 1    
    32   15   85 1    
    33   16   17 1    
    34   17   18 1    
    35   17   86 1    
    36   17   87 1    
    37   18   19 1    
    38   18   37 1    
    39   18   88 1    
    40   19   20 am   BACKBONE|DICT|INTERRES
    41   19   89 1    
    42   20   21 2    
    43   20   22 1    
    44   22   23 1    
    45   22   24 1    
    46   22   90 1    
    47   23   91 1    
    48   23   92 1    
    49   23   93 1    
    50   24   25 am   BACKBONE|DICT|INTERRES
    51   24   94 1    
    52   25   26 2    
    53   25   27 1    
    54   27   28 1    
    55   27   29 1    
    56   27   95 1    
    57   28   96 1    
    58   28   97 1    
    59   28   98 1    
    60   29   30 am   BACKBONE|DICT|INTERRES
    61   29   99 1    
    62   30   31 2    
    63   30   32 1    
    64   32   33 1    
    65   32   34 1    
    66   32  100 1    
    67   33  101 1    
    68   33  102 1    
    69   33  103 1    
    70   34   35 am   BACKBONE|DICT|INTERRES
    71   34  104 1    
    72   35   36 2    
    73   37   38 2    
    74   37   39 am   BACKBONE|DICT|INTERRES
    75   39   40 1    
    76   39  105 1    
    77   40   41 1    
    78   40   42 1    
    79   40  106 1    
    80   41  107 1    
    81   41  108 1    
    82   41  109 1    
    83   42   43 2    
    84   42   44 am   BACKBONE|DICT|INTERRES
    85   44   45 1    
    86   44  110 1    
    87   45   46 1    
    88   45   47 1    
    89   45  111 1    
    90   46  112 1    
    91   46  113 1    
    92   46  114 1    
    93   47   48 2    
    94   47   49 am   BACKBONE|DICT|INTERRES
    95   49   50 1    
    96   49  115 1    
    97   50   51 1    
    98   50   52 1    
    99   50  116 1    
   100   51  117 1    
   101   51  118 1    
   102   51  119 1    
   103   52   53 2    
   104   52   54 am   BACKBONE|DICT|INTERRES
   105   54   55 1    
   106   54  120 1    
   107   55   56 1    
   108   55   57 1    
   109   55  121 1    
   110   56  122 1    
   111   56  123 1    
   112   56  124 1    
   113   57   58 2    
   114   57   59 am   BACKBONE|DICT|INTERRES
   115   59   60 1    
   116   59  125 1    
   117   60   61 1    
   118   60   62 1    
   119   60  126 1    
   120   61  127 1    
   121   61  128 1    
   122   61  129 1    
   123   62   63 2    
   124   62   64 am   BACKBONE|DICT|INTERRES
   125   64   65 1    
   126   64  130 1    
   127   65   66 1    
   128   65   69 1    
   129   65  131 1    
   130   66   67 am   BACKBONE|DICT|INTERRES
   131   66   68 2    
   132   67  132 1    
   133   67  133 1    
   134   69   70 1    
   135   69  134 1    
   136   69  135 1    
   137   70   71 1    
   138   71  136 1    
   139   71  137 1    
@<TRIPOS>SUBSTRUCTURE
     1 UNK         1 GROUP             0       ****    0 ROOT    
