@<TRIPOS>MOLECULE
3R136
137   139    1
SMALL
USER_CHARGES


@<TRIPOS>ATOM
      1 CA         26.0630   22.8637    0.2493 C.3       0 UNK        -0.1979 
      2 C          27.2383   23.6824    0.7596 C.2       0 UNK         0.4864 
      3 O          27.3190   24.8810    0.4791 O.2       0 UNK        -0.5359 
      4 N          28.1264   23.0451    1.5348 N.am      1 UNK        -0.4318 
      5 CA         29.3706   23.5933    2.0966 C.3       1 UNK         0.0824 
      6 C6         30.0797   22.5592    3.0125 C.3       12 UNK        -0.0944 
      7 S7         30.4402   20.9786    2.1705 S.3       12 UNK        -0.2672 
      8 C8         32.2559   21.0429    1.9985 C.3       12 UNK         0.0333 
      9 C9         32.7137   22.2712    1.2249 C.ar      12 UNK        -0.0807 
     10 C10        33.5473   23.2187    1.8276 C.ar      12 UNK        -0.0894 
     11 C11        33.9170   24.3781    1.1385 C.ar      12 UNK        -0.0804 
     12 C12        33.4516   24.5832   -0.1639 C.ar      12 UNK        -0.0824 
     13 C13        32.6227   23.6387   -0.7764 C.ar      12 UNK        -0.0762 
     14 C14        32.2735   22.4768   -0.0850 C.ar      12 UNK        -0.0782 
     15 C15        32.0643   23.8823   -2.1687 C.3       12 UNK         0.0230 
     16 S16        30.3253   24.4133   -2.0809 S.3       12 UNK        -0.2608 
     17 C17        30.4877   26.0814   -1.3570 C.3       12 UNK        -0.0989 
     18 CA         29.5302   27.0861   -2.0435 C.3       5 UNK         0.0716 
     19 N          28.1367   26.7317   -1.7720 N.am      5 UNK        -0.4135 
     20 C          27.0742   27.1466   -2.4714 C.2       4 UNK         0.5031 
     21 O          27.1393   27.7310   -3.5544 O.2       4 UNK        -0.5229 
     22 CA         25.7055   26.8905   -1.8224 C.3       4 UNK         0.0329 
     23 CB         25.1993   25.4787   -2.1565 C.3       4 UNK        -0.2001 
     24 N          25.7762   27.0783   -0.3658 N.am      4 UNK        -0.4303 
     25 C          25.7064   28.2850    0.2165 C.2       3 UNK         0.5044 
     26 O          25.4736   29.3179   -0.4139 O.2       3 UNK        -0.5152 
     27 CA         25.8789   28.3997    1.7408 C.3       3 UNK         0.0319 
     28 CB         24.4980   28.5707    2.4094 C.3       3 UNK        -0.2001 
     29 N          26.6220   27.3118    2.3983 N.am      3 UNK        -0.4354 
     30 C          27.1788   27.4671    3.6124 C.2       2 UNK         0.4964 
     31 O          27.2441   28.5518    4.1940 O.2       2 UNK        -0.5047 
     32 CA         27.7066   26.2319    4.3611 C.3       2 UNK         0.0288 
     33 CB         26.6784   25.7813    5.4132 C.3       2 UNK        -0.2113 
     34 N          28.0230   25.0909    3.5074 N.am      2 UNK        -0.4145 
     35 C          29.1897   24.9151    2.8728 C.2       1 UNK         0.5006 
     36 O          30.1103   25.7289    2.8971 O.2       1 UNK        -0.5103 
     37 C          29.8134   28.5398   -1.5977 C.2       5 UNK         0.5055 
     38 O          28.9525   29.1854   -0.9934 O.2       5 UNK        -0.5220 
     39 N          31.0253   29.0346   -1.8920 N.am      6 UNK        -0.4450 
     40 CA         31.5369   30.3424   -1.4636 C.3       6 UNK         0.0367 
     41 CB         32.7977   30.6792   -2.2808 C.3       6 UNK        -0.1929 
     42 C          31.8025   30.3699    0.0553 C.2       6 UNK         0.5070 
     43 O          32.9514   30.2664    0.4926 O.2       6 UNK        -0.5237 
     44 N          30.7203   30.4547    0.8309 N.am      7 UNK        -0.4739 
     45 CA         30.7013   30.3080    2.2775 C.3       7 UNK         0.0276 
     46 CB         30.5707   28.8115    2.6120 C.3       7 UNK        -0.1927 
     47 C          29.5266   31.0825    2.8798 C.2       7 UNK         0.5013 
     48 O          28.5526   31.3826    2.1847 O.2       7 UNK        -0.5193 
     49 N          29.6396   31.3467    4.1818 N.am      8 UNK        -0.4253 
     50 CA         28.5901   31.8667    5.0479 C.3       8 UNK         0.0242 
     51 CB         28.7129   33.3978    5.1615 C.3       8 UNK        -0.2000 
     52 C          28.7694   31.1435    6.3848 C.2       8 UNK         0.4948 
     53 O          29.3989   31.6824    7.2975 O.2       8 UNK        -0.5275 
     54 N          28.3258   29.8795    6.4249 N.am      9 UNK        -0.4246 
     55 CA         28.5831   28.8508    7.4432 C.3       9 UNK         0.0261 
     56 CB         28.1302   29.2782    8.8537 C.3       9 UNK        -0.1959 
     57 C          30.0418   28.3622    7.4223 C.2       9 UNK         0.5033 
     58 O          30.2726   27.1641    7.2575 O.2       9 UNK        -0.5390 
     59 N          30.9912   29.2961    7.5422 N.am      10 UNK        -0.4215 
     60 CA         32.4131   29.0885    7.2789 C.3       10 UNK         0.0240 
     61 CB         33.2331   29.9617    8.2420 C.3       10 UNK        -0.1982 
     62 C          32.7124   29.4728    5.8229 C.2       10 UNK         0.4970 
     63 O          32.0906   30.4034    5.3027 O.2       10 UNK        -0.4916 
     64 N          33.6601   28.7646    5.2008 N.am      11 UNK        -0.4279 
     65 CA         34.1319   29.0218    3.8315 C.3       11 UNK         0.1003 
     66 C          34.9349   30.3436    3.7116 C.2       11 UNK         0.5709 
     67 N          34.8083   31.0435    2.5922 N.am      11 UNK        -0.7358 
     68 O          35.6958   30.7163    4.6032 O.2       11 UNK        -0.4999 
     69 C69        34.9352   27.8205    3.2742 C.3       12 UNK        -0.0954 
     70 S70        33.8656   26.3621    3.0502 S.3       12 UNK        -0.2268 
     71 C71        34.8003   25.4201    1.8073 C.3       12 UNK         0.0203 
     72 H72        25.1406   23.4393    0.3205 H         1 UNK         0.0888 
     73 H73        26.2203   22.5926   -0.7940 H         1 UNK         0.0888 
     74 H74        25.9307   21.9461    0.8223 H         1 UNK         0.0888 
     75 H75        27.9932   22.0593    1.7121 H         1 UNK         0.3017 
     76 H76        30.0257   23.8157    1.2518 H         1 UNK         0.0873 
     77 H77        31.0095   22.9717    3.4099 H         1 UNK         0.0745 
     78 H78        29.4597   22.3348    3.8828 H         1 UNK         0.0745 
     79 H79        32.7069   21.0155    2.9917 H         1 UNK         0.0705 
     80 H80        32.5959   20.1457    1.4796 H         1 UNK         0.0705 
     81 H81        33.8901   23.0711    2.8427 H         1 UNK         0.1334 
     82 H82        33.7213   25.4864   -0.6938 H         1 UNK         0.1417 
     83 H83        31.6178   21.7529   -0.5501 H         1 UNK         0.1562 
     84 H84        32.1252   22.9626   -2.7524 H         1 UNK         0.0748 
     85 H85        32.6545   24.6257   -2.7068 H         1 UNK         0.0748 
     86 H86        31.5246   26.4034   -1.4564 H         1 UNK         0.0940 
     87 H87        30.2920   26.0216   -0.2838 H         1 UNK         0.0940 
     88 H88        29.6928   27.0453   -3.1228 H         1 UNK         0.0703 
     89 H89        27.9677   26.2260   -0.9097 H         1 UNK         0.3081 
     90 H90        24.9919   27.6037   -2.2412 H         1 UNK         0.0719 
     91 H91        25.0002   25.3856   -3.2248 H         1 UNK         0.0809 
     92 H92        24.2718   25.2497   -1.6317 H         1 UNK         0.0809 
     93 H93        25.9332   24.7156   -1.9021 H         1 UNK         0.0809 
     94 H94        26.0355   26.2603    0.1741 H         1 UNK         0.2990 
     95 H95        26.4427   29.3243    1.8893 H         1 UNK         0.0690 
     96 H96        23.9126   27.6521    2.3570 H         1 UNK         0.0788 
     97 H97        23.9178   29.3563    1.9232 H         1 UNK         0.0788 
     98 H98        24.5897   28.8504    3.4589 H         1 UNK         0.0788 
     99 H99        26.6694   26.4122    1.9374 H         1 UNK         0.2993 
    100 H100       28.6145   26.5404    4.8859 H         1 UNK         0.0949 
    101 H101       26.3899   26.6060    6.0659 H         1 UNK         0.0767 
    102 H102       25.7655   25.4045    4.9501 H         1 UNK         0.0767 
    103 H103       27.0832   24.9940    6.0496 H         1 UNK         0.0767 
    104 H104       27.3218   24.3694    3.4261 H         1 UNK         0.3013 
    105 H105       31.6796   28.4482   -2.3894 H         1 UNK         0.3121 
    106 H106       30.7828   31.1011   -1.6846 H         1 UNK         0.0774 
    107 H107       33.2032   31.6482   -1.9870 H         1 UNK         0.0815 
    108 H108       33.5862   29.9397   -2.1351 H         1 UNK         0.0815 
    109 H109       32.5781   30.7314   -3.3473 H         1 UNK         0.0815 
    110 H110       29.8047   30.4924    0.3914 H         1 UNK         0.2987 
    111 H111       31.6252   30.7141    2.6930 H         1 UNK         0.0949 
    112 H112       29.6436   28.3990    2.2127 H         1 UNK         0.0806 
    113 H113       31.3887   28.2268    2.1916 H         1 UNK         0.0806 
    114 H114       30.5669   28.6367    3.6884 H         1 UNK         0.0806 
    115 H115       30.4899   31.0477    4.6599 H         1 UNK         0.3010 
    116 H116       27.6052   31.6135    4.6481 H         1 UNK         0.0829 
    117 H117       28.5560   33.8779    4.1956 H         1 UNK         0.0813 
    118 H118       27.9674   33.7975    5.8499 H         1 UNK         0.0813 
    119 H119       29.6947   33.6998    5.5286 H         1 UNK         0.0813 
    120 H120       27.8768   29.5190    5.5816 H         1 UNK         0.3038 
    121 H121       27.9659   27.9998    7.1550 H         1 UNK         0.0769 
    122 H122       28.7261   30.0994    9.2519 H         1 UNK         0.0811 
    123 H123       28.2213   28.4477    9.5547 H         1 UNK         0.0811 
    124 H124       27.0860   29.5906    8.8554 H         1 UNK         0.0811 
    125 H125       30.6766   30.2624    7.5937 H         1 UNK         0.3204 
    126 H126       32.6764   28.0408    7.4401 H         1 UNK         0.0748 
    127 H127       33.0288   29.7033    9.2813 H         1 UNK         0.0771 
    128 H128       34.3031   29.8269    8.0779 H         1 UNK         0.0771 
    129 H129       33.0138   31.0225    8.1113 H         1 UNK         0.0771 
    130 H130       34.1381   28.0298    5.6999 H         1 UNK         0.2980 
    131 H131       33.2500   29.1377    3.2047 H         1 UNK         0.0545 
    132 H132       34.1900   30.7332    1.8454 H         1 UNK         0.3459 
    133 H133       35.3318   31.8972    2.4846 H         1 UNK         0.3459 
    134 H134       35.3703   28.0760    2.3061 H         1 UNK         0.0616 
    135 H135       35.7670   27.5618    3.9318 H         1 UNK         0.0616 
    136 H136       35.6523   24.9358    2.2863 H         1 UNK         0.0634 
    137 H137       35.2088   26.1011    1.0592 H         1 UNK         0.0634 
@<TRIPOS>BOND
     1    1    2 1    
     2    1   72 1    
     3    1   73 1    
     4    1   74 1    
     5    2    3 2    
     6    2    4 am   BACKBONE|DICT|INTERRES
     7    4    5 1    
     8    4   75 1    
     9    5    6 1    
    10    5   35 1    
    11    5   76 1    
    12    6    7 1    
    13    6   77 1    
    14    6   78 1    
    15    7    8 1    
    16    8    9 1    
    17    8   79 1    
    18    8   80 1    
    19    9   10 ar   
    20    9   14 ar   
    21   10   11 ar   
    22   10   81 1    
    23   11   12 ar   
    24   11   71 1    
    25   12   13 ar   
    26   12   82 1    
    27   13   14 ar   
    28   13   15 1    
    29   14   83 1    
    30   15   16 1    
    31   15   84 1    
    32   15   85 1    
    33   16   17 1    
    34   17   18 1    
    35   17   86 1    
    36   17   87 1    
    37   18   19 1    
    38   18   37 1    
    39   18   88 1    
    40   19   20 am   BACKBONE|DICT|INTERRES
    41   19   89 1    
    42   20   21 2    
    43   20   22 1    
    44   22   23 1    
    45   22   24 1    
    46   22   90 1    
    47   23   91 1    
    48   23   92 1    
    49   23   93 1    
    50   24   25 am   BACKBONE|DICT|INTERRES
    51   24   94 1    
    52   25   26 2    
    53   25   27 1    
    54   27   28 1    
    55   27   29 1    
    56   27   95 1    
    57   28   96 1    
    58   28   97 1    
    59   28   98 1    
    60   29   30 am   BACKBONE|DICT|INTERRES
    61   29   99 1    
    62   30   31 2    
    63   30   32 1    
    64   32   33 1    
    65   32   34 1    
    66   32  100 1    
    67   33  101 1    
    68   33  102 1    
    69   33  103 1    
    70   34   35 am   BACKBONE|DICT|INTERRES
    71   34  104 1    
    72   35   36 2    
    73   37   38 2    
    74   37   39 am   BACKBONE|DICT|INTERRES
    75   39   40 1    
    76   39  105 1    
    77   40   41 1    
    78   40   42 1    
    79   40  106 1    
    80   41  107 1    
    81   41  108 1    
    82   41  109 1    
    83   42   43 2    
    84   42   44 am   BACKBONE|DICT|INTERRES
    85   44   45 1    
    86   44  110 1    
    87   45   46 1    
    88   45   47 1    
    89   45  111 1    
    90   46  112 1    
    91   46  113 1    
    92   46  114 1    
    93   47   48 2    
    94   47   49 am   BACKBONE|DICT|INTERRES
    95   49   50 1    
    96   49  115 1    
    97   50   51 1    
    98   50   52 1    
    99   50  116 1    
   100   51  117 1    
   101   51  118 1    
   102   51  119 1    
   103   52   53 2    
   104   52   54 am   BACKBONE|DICT|INTERRES
   105   54   55 1    
   106   54  120 1    
   107   55   56 1    
   108   55   57 1    
   109   55  121 1    
   110   56  122 1    
   111   56  123 1    
   112   56  124 1    
   113   57   58 2    
   114   57   59 am   BACKBONE|DICT|INTERRES
   115   59   60 1    
   116   59  125 1    
   117   60   61 1    
   118   60   62 1    
   119   60  126 1    
   120   61  127 1    
   121   61  128 1    
   122   61  129 1    
   123   62   63 2    
   124   62   64 am   BACKBONE|DICT|INTERRES
   125   64   65 1    
   126   64  130 1    
   127   65   66 1    
   128   65   69 1    
   129   65  131 1    
   130   66   67 am   BACKBONE|DICT|INTERRES
   131   66   68 2    
   132   67  132 1    
   133   67  133 1    
   134   69   70 1    
   135   69  134 1    
   136   69  135 1    
   137   70   71 1    
   138   71  136 1    
   139   71  137 1    
@<TRIPOS>SUBSTRUCTURE
     1 UNK         1 GROUP             0       ****    0 ROOT    
