@<TRIPOS>MOLECULE
3R136
137   139    1
SMALL
USER_CHARGES


@<TRIPOS>ATOM
      1 CA         29.0036   23.2954    3.4454 C.3       0 UNK        -0.1979 
      2 C          28.9440   23.6269    1.9622 C.2       0 UNK         0.4864 
      3 O          27.9520   23.3103    1.3038 O.2       0 UNK        -0.5359 
      4 N          30.0032   24.2525    1.4327 N.am      1 UNK        -0.4318 
      5 CA         30.1228   24.6993    0.0387 C.3       1 UNK         0.0824 
      6 C6         31.5428   25.2288   -0.2826 C.3       12 UNK        -0.0944 
      7 S7         32.8876   24.1065    0.2277 S.3       12 UNK        -0.2672 
      8 C8         33.7574   25.1262    1.4635 C.3       12 UNK         0.0333 
      9 C9         33.0396   25.1542    2.8066 C.ar      12 UNK        -0.0807 
     10 C10        33.3165   24.1743    3.7623 C.ar      12 UNK        -0.0894 
     11 C11        32.7322   24.2306    5.0310 C.ar      12 UNK        -0.0804 
     12 C12        31.8369   25.2620    5.3315 C.ar      12 UNK        -0.0824 
     13 C13        31.5339   26.2376    4.3759 C.ar      12 UNK        -0.0762 
     14 C14        32.1430   26.1811    3.1182 C.ar      12 UNK        -0.0782 
     15 C15        30.5896   27.3824    4.7149 C.3       12 UNK         0.0230 
     16 S16        28.8771   26.8037    4.8852 S.3       12 UNK        -0.2608 
     17 C17        27.9571   28.3419    4.5325 C.3       12 UNK        -0.0989 
     18 CA         27.5985   28.4550    3.0256 C.3       5 UNK         0.0716 
     19 N          26.8962   27.2805    2.5039 N.am      5 UNK        -0.4135 
     20 C          25.6828   26.8395    2.8519 C.2       4 UNK         0.5031 
     21 O          24.9589   27.3711    3.6973 O.2       4 UNK        -0.5229 
     22 CA         25.1668   25.6197    2.0881 C.3       4 UNK         0.0329 
     23 CB         24.8605   24.4440    3.0309 C.3       4 UNK        -0.2001 
     24 N          23.9472   26.0412    1.4027 N.am      4 UNK        -0.4303 
     25 C          23.6130   25.8388    0.1216 C.2       3 UNK         0.5044 
     26 O          22.6220   26.3755   -0.3742 O.2       3 UNK        -0.5152 
     27 CA         24.4784   24.9007   -0.7541 C.3       3 UNK         0.0319 
     28 CB         23.6326   24.2195   -1.8475 C.3       3 UNK        -0.2001 
     29 N          25.6669   25.4875   -1.3985 N.am      3 UNK        -0.4354 
     30 C          26.2783   26.6739   -1.2385 C.2       2 UNK         0.4964 
     31 O          25.9099   27.5861   -0.4952 O.2       2 UNK        -0.5047 
     32 CA         27.5995   26.8166   -2.0197 C.3       2 UNK         0.0288 
     33 CB         28.1412   28.2634   -2.0188 C.3       2 UNK        -0.2113 
     34 N          28.6177   25.8716   -1.5303 N.am      2 UNK        -0.4145 
     35 C          29.0875   25.7980   -0.2746 C.2       1 UNK         0.5006 
     36 O          28.7627   26.5772    0.6217 O.2       1 UNK        -0.5103 
     37 C          26.8900   29.7749    2.6480 C.2       5 UNK         0.5055 
     38 O          27.0287   30.7686    3.3636 O.2       5 UNK        -0.5220 
     39 N          26.1478   29.7729    1.5285 N.am      6 UNK        -0.4450 
     40 CA         25.3994   30.9308    1.0359 C.3       6 UNK         0.0367 
     41 CB         24.2527   30.4464    0.1338 C.3       6 UNK        -0.1929 
     42 C          26.2865   31.9322    0.2796 C.2       6 UNK         0.5070 
     43 O          25.9788   33.1246    0.2773 O.2       6 UNK        -0.5237 
     44 N          27.3572   31.4390   -0.3550 N.am      7 UNK        -0.4739 
     45 CA         28.2758   32.2223   -1.1820 C.3       7 UNK         0.0276 
     46 CB         27.6606   32.4567   -2.5784 C.3       7 UNK        -0.1927 
     47 C          29.6542   31.5460   -1.2393 C.2       7 UNK         0.5013 
     48 O          30.2158   31.3857   -2.3245 O.2       7 UNK        -0.5193 
     49 N          30.1726   31.1420   -0.0740 N.am      8 UNK        -0.4253 
     50 CA         31.4861   30.5211    0.0795 C.3       8 UNK         0.0242 
     51 CB         31.3695   28.9963   -0.0875 C.3       8 UNK        -0.2000 
     52 C          32.0545   30.8694    1.4572 C.2       8 UNK         0.4948 
     53 O          31.2843   31.0729    2.3997 O.2       8 UNK        -0.5275 
     54 N          33.3895   30.9021    1.5499 N.am      9 UNK        -0.4246 
     55 CA         34.1301   31.0361    2.8051 C.3       9 UNK         0.0261 
     56 CB         35.5673   31.4893    2.4996 C.3       9 UNK        -0.1959 
     57 C          34.1359   29.7005    3.5650 C.2       9 UNK         0.5033 
     58 O          34.1611   28.6430    2.9311 O.2       9 UNK        -0.5390 
     59 N          34.1181   29.7764    4.9005 N.am      10 UNK        -0.4215 
     60 CA         34.0643   28.6186    5.7930 C.3       10 UNK         0.0240 
     61 CB         33.7024   29.0896    7.2112 C.3       10 UNK        -0.1982 
     62 C          35.3645   27.8005    5.8119 C.2       10 UNK         0.4970 
     63 O          36.4529   28.3651    5.6768 O.2       10 UNK        -0.4916 
     64 N          35.2124   26.4912    6.0383 N.am      11 UNK        -0.4279 
     65 CA         36.2910   25.5401    6.3352 C.3       11 UNK         0.1003 
     66 C          37.0521   25.8631    7.6538 C.2       11 UNK         0.5709 
     67 N          38.3076   25.4479    7.7589 N.am      11 UNK        -0.7358 
     68 O          36.5133   26.4546    8.5884 O.2       11 UNK        -0.4999 
     69 C69        35.7767   24.0721    6.3129 C.3       12 UNK        -0.0954 
     70 S70        34.2678   23.7861    7.3122 S.3       12 UNK        -0.2268 
     71 C71        33.0740   23.1772    6.0754 C.3       12 UNK         0.0203 
     72 H72        29.9800   23.5226    3.8721 H         1 UNK         0.0888 
     73 H73        28.2550   23.8713    3.9882 H         1 UNK         0.0888 
     74 H74        28.8033   22.2363    3.6039 H         1 UNK         0.0888 
     75 H75        30.7863   24.4903    2.0258 H         1 UNK         0.3017 
     76 H76        29.9164   23.8366   -0.5979 H         1 UNK         0.0873 
     77 H77        31.6454   25.3983   -1.3562 H         1 UNK         0.0745 
     78 H78        31.7012   26.2004    0.1837 H         1 UNK         0.0745 
     79 H79        33.8964   26.1398    1.0832 H         1 UNK         0.0705 
     80 H80        34.7620   24.7223    1.5984 H         1 UNK         0.0705 
     81 H81        34.0097   23.3792    3.5235 H         1 UNK         0.1334 
     82 H82        31.3788   25.3093    6.3104 H         1 UNK         0.1417 
     83 H83        31.9424   26.9566    2.3918 H         1 UNK         0.1562 
     84 H84        30.6424   28.1544    3.9448 H         1 UNK         0.0748 
     85 H85        30.8966   27.8566    5.6479 H         1 UNK         0.0748 
     86 H86        28.5518   29.1975    4.8584 H         1 UNK         0.0940 
     87 H87        27.0532   28.3527    5.1436 H         1 UNK         0.0940 
     88 H88        28.5422   28.4893    2.4794 H         1 UNK         0.0703 
     89 H89        27.4138   26.8052    1.7651 H         1 UNK         0.3081 
     90 H90        25.9423   25.3091    1.3875 H         1 UNK         0.0719 
     91 H91        25.7554   24.1416    3.5758 H         1 UNK         0.0809 
     92 H92        24.0993   24.7025    3.7681 H         1 UNK         0.0809 
     93 H93        24.5092   23.5735    2.4771 H         1 UNK         0.0809 
     94 H94        23.3778   26.6763    1.9452 H         1 UNK         0.2990 
     95 H95        24.8348   24.0930   -0.1138 H         1 UNK         0.0690 
     96 H96        23.3052   24.9332   -2.6047 H         1 UNK         0.0788 
     97 H97        22.7385   23.7595   -1.4239 H         1 UNK         0.0788 
     98 H98        24.1906   23.4300   -2.3510 H         1 UNK         0.0788 
     99 H99        26.1310   24.8501   -2.0292 H         1 UNK         0.2993 
    100 H100       27.3851   26.5512   -3.0564 H         1 UNK         0.0949 
    101 H101       28.3958   28.6045   -1.0157 H         1 UNK         0.0767 
    102 H102       29.0343   28.3524   -2.6371 H         1 UNK         0.0767 
    103 H103       27.4006   28.9564   -2.4198 H         1 UNK         0.0767 
    104 H104       28.9476   25.1961   -2.2062 H         1 UNK         0.3013 
    105 H105       26.0848   28.9215    0.9746 H         1 UNK         0.3121 
    106 H106       24.9599   31.4525    1.8890 H         1 UNK         0.0774 
    107 H107       23.6330   31.2833   -0.1909 H         1 UNK         0.0815 
    108 H108       24.6252   29.9508   -0.7635 H         1 UNK         0.0815 
    109 H109       23.6033   29.7445    0.6573 H         1 UNK         0.0815 
    110 H110       27.5423   30.4476   -0.2923 H         1 UNK         0.2987 
    111 H111       28.4344   33.1953   -0.7114 H         1 UNK         0.0949 
    112 H112       28.3222   33.0580   -3.2033 H         1 UNK         0.0806 
    113 H113       27.4818   31.5160   -3.1002 H         1 UNK         0.0806 
    114 H114       26.7119   32.9895   -2.5140 H         1 UNK         0.0806 
    115 H115       29.6965   31.3499    0.7954 H         1 UNK         0.3010 
    116 H116       32.1660   30.9172   -0.6785 H         1 UNK         0.0829 
    117 H117       31.0205   28.7297   -1.0847 H         1 UNK         0.0813 
    118 H118       32.3376   28.5147    0.0560 H         1 UNK         0.0813 
    119 H119       30.6771   28.5666    0.6374 H         1 UNK         0.0813 
    120 H120       33.9380   30.6707    0.7343 H         1 UNK         0.3038 
    121 H121       33.6445   31.7972    3.4201 H         1 UNK         0.0769 
    122 H122       35.5797   32.4424    1.9705 H         1 UNK         0.0811 
    123 H123       36.1387   31.6224    3.4192 H         1 UNK         0.0811 
    124 H124       36.1002   30.7584    1.8896 H         1 UNK         0.0811 
    125 H125       34.1505   30.6849    5.3396 H         1 UNK         0.3204 
    126 H126       33.2683   27.9694    5.4358 H         1 UNK         0.0748 
    127 H127       32.7422   29.6057    7.2265 H         1 UNK         0.0771 
    128 H128       33.6244   28.2442    7.8966 H         1 UNK         0.0771 
    129 H129       34.4565   29.7661    7.6156 H         1 UNK         0.0771 
    130 H130       34.2811   26.1162    6.1451 H         1 UNK         0.2980 
    131 H131       37.0170   25.6424    5.5262 H         1 UNK         0.0545 
    132 H132       38.7594   24.9527    7.0058 H         1 UNK         0.3459 
    133 H133       38.8150   25.6360    8.6094 H         1 UNK         0.3459 
    134 H134       35.5873   23.7775    5.2818 H         1 UNK         0.0616 
    135 H135       36.5500   23.3844    6.6598 H         1 UNK         0.0616 
    136 H136       33.4743   22.2789    5.6026 H         1 UNK         0.0634 
    137 H137       32.1625   22.8693    6.5896 H         1 UNK         0.0634 
@<TRIPOS>BOND
     1    1    2 1    
     2    1   72 1    
     3    1   73 1    
     4    1   74 1    
     5    2    3 2    
     6    2    4 am   BACKBONE|DICT|INTERRES
     7    4    5 1    
     8    4   75 1    
     9    5    6 1    
    10    5   35 1    
    11    5   76 1    
    12    6    7 1    
    13    6   77 1    
    14    6   78 1    
    15    7    8 1    
    16    8    9 1    
    17    8   79 1    
    18    8   80 1    
    19    9   10 ar   
    20    9   14 ar   
    21   10   11 ar   
    22   10   81 1    
    23   11   12 ar   
    24   11   71 1    
    25   12   13 ar   
    26   12   82 1    
    27   13   14 ar   
    28   13   15 1    
    29   14   83 1    
    30   15   16 1    
    31   15   84 1    
    32   15   85 1    
    33   16   17 1    
    34   17   18 1    
    35   17   86 1    
    36   17   87 1    
    37   18   19 1    
    38   18   37 1    
    39   18   88 1    
    40   19   20 am   BACKBONE|DICT|INTERRES
    41   19   89 1    
    42   20   21 2    
    43   20   22 1    
    44   22   23 1    
    45   22   24 1    
    46   22   90 1    
    47   23   91 1    
    48   23   92 1    
    49   23   93 1    
    50   24   25 am   BACKBONE|DICT|INTERRES
    51   24   94 1    
    52   25   26 2    
    53   25   27 1    
    54   27   28 1    
    55   27   29 1    
    56   27   95 1    
    57   28   96 1    
    58   28   97 1    
    59   28   98 1    
    60   29   30 am   BACKBONE|DICT|INTERRES
    61   29   99 1    
    62   30   31 2    
    63   30   32 1    
    64   32   33 1    
    65   32   34 1    
    66   32  100 1    
    67   33  101 1    
    68   33  102 1    
    69   33  103 1    
    70   34   35 am   BACKBONE|DICT|INTERRES
    71   34  104 1    
    72   35   36 2    
    73   37   38 2    
    74   37   39 am   BACKBONE|DICT|INTERRES
    75   39   40 1    
    76   39  105 1    
    77   40   41 1    
    78   40   42 1    
    79   40  106 1    
    80   41  107 1    
    81   41  108 1    
    82   41  109 1    
    83   42   43 2    
    84   42   44 am   BACKBONE|DICT|INTERRES
    85   44   45 1    
    86   44  110 1    
    87   45   46 1    
    88   45   47 1    
    89   45  111 1    
    90   46  112 1    
    91   46  113 1    
    92   46  114 1    
    93   47   48 2    
    94   47   49 am   BACKBONE|DICT|INTERRES
    95   49   50 1    
    96   49  115 1    
    97   50   51 1    
    98   50   52 1    
    99   50  116 1    
   100   51  117 1    
   101   51  118 1    
   102   51  119 1    
   103   52   53 2    
   104   52   54 am   BACKBONE|DICT|INTERRES
   105   54   55 1    
   106   54  120 1    
   107   55   56 1    
   108   55   57 1    
   109   55  121 1    
   110   56  122 1    
   111   56  123 1    
   112   56  124 1    
   113   57   58 2    
   114   57   59 am   BACKBONE|DICT|INTERRES
   115   59   60 1    
   116   59  125 1    
   117   60   61 1    
   118   60   62 1    
   119   60  126 1    
   120   61  127 1    
   121   61  128 1    
   122   61  129 1    
   123   62   63 2    
   124   62   64 am   BACKBONE|DICT|INTERRES
   125   64   65 1    
   126   64  130 1    
   127   65   66 1    
   128   65   69 1    
   129   65  131 1    
   130   66   67 am   BACKBONE|DICT|INTERRES
   131   66   68 2    
   132   67  132 1    
   133   67  133 1    
   134   69   70 1    
   135   69  134 1    
   136   69  135 1    
   137   70   71 1    
   138   71  136 1    
   139   71  137 1    
@<TRIPOS>SUBSTRUCTURE
     1 UNK         1 GROUP             0       ****    0 ROOT    
