@<TRIPOS>MOLECULE
3R136
137   139    1
SMALL
USER_CHARGES


@<TRIPOS>ATOM
      1 CA         31.2827   23.3932   -4.7861 C.3       0 UNK        -0.1979 
      2 C          30.4314   23.6810   -3.5587 C.2       0 UNK         0.4864 
      3 O          30.1113   22.7566   -2.8102 O.2       0 UNK        -0.5359 
      4 N          30.0500   24.9514   -3.3602 N.am      1 UNK        -0.4318 
      5 CA         29.2794   25.5196   -2.2393 C.3       1 UNK         0.0824 
      6 C6         29.9181   25.2958   -0.8452 C.3       12 UNK        -0.0944 
      7 S7         31.6542   25.8238   -0.6651 S.3       12 UNK        -0.2672 
      8 C8         32.3760   24.4017    0.2336 C.3       12 UNK         0.0333 
      9 C9         32.0667   24.3968    1.7328 C.ar      12 UNK        -0.0807 
     10 C10        33.1030   24.4526    2.6715 C.ar      12 UNK        -0.0894 
     11 C11        32.8294   24.3995    4.0435 C.ar      12 UNK        -0.0804 
     12 C12        31.5028   24.3111    4.4808 C.ar      12 UNK        -0.0824 
     13 C13        30.4532   24.2685    3.5550 C.ar      12 UNK        -0.0762 
     14 C14        30.7518   24.2867    2.1933 C.ar      12 UNK        -0.0782 
     15 C15        28.9804   24.1757    3.9520 C.3       12 UNK         0.0230 
     16 S16        28.5502   24.7706    5.6208 S.3       12 UNK        -0.2608 
     17 C17        28.8850   26.5697    5.6848 C.3       12 UNK        -0.0989 
     18 CA         29.2468   27.3492    4.3883 C.3       5 UNK         0.0716 
     19 N          28.1504   27.3785    3.4077 N.am      5 UNK        -0.4135 
     20 C          28.1915   27.9305    2.1843 C.2       4 UNK         0.5031 
     21 O          29.1773   28.5155    1.7234 O.2       4 UNK        -0.5229 
     22 CA         26.8948   27.8356    1.3505 C.3       4 UNK         0.0329 
     23 CB         26.9887   28.5770    0.0059 C.3       4 UNK        -0.2001 
     24 N          26.4795   26.4580    1.0730 N.am      4 UNK        -0.4303 
     25 C          25.8711   25.6364    1.9415 C.2       3 UNK         0.5044 
     26 O          25.6787   25.9388    3.1202 O.2       3 UNK        -0.5152 
     27 CA         25.3969   24.2599    1.4361 C.3       3 UNK         0.0319 
     28 CB         23.9088   24.0249    1.7534 C.3       3 UNK        -0.2001 
     29 N          25.6192   24.0807   -0.0010 N.am      3 UNK        -0.4354 
     30 C          26.0263   22.9517   -0.5926 C.2       2 UNK         0.4964 
     31 O          26.2161   21.8916    0.0039 O.2       2 UNK        -0.5047 
     32 CA         26.3082   23.0269   -2.1049 C.3       2 UNK         0.0288 
     33 CB         25.1057   23.5587   -2.9141 C.3       2 UNK        -0.2113 
     34 N          27.5434   23.7690   -2.3866 N.am      2 UNK        -0.4145 
     35 C          27.8053   25.0637   -2.1606 C.2       1 UNK         0.5006 
     36 O          26.9495   25.8782   -1.8104 O.2       1 UNK        -0.5103 
     37 C          29.7399   28.7512    4.8057 C.2       5 UNK         0.5055 
     38 O          30.8930   28.8724    5.2156 O.2       5 UNK        -0.5220 
     39 N          28.8683   29.7636    4.7512 N.am      6 UNK        -0.4450 
     40 CA         29.1649   31.1448    5.1244 C.3       6 UNK         0.0367 
     41 CB         28.6198   31.4251    6.5380 C.3       6 UNK        -0.1929 
     42 C          28.5863   32.0758    4.0519 C.2       6 UNK         0.5070 
     43 O          27.7542   32.9317    4.3571 O.2       6 UNK        -0.5237 
     44 N          29.0161   31.8623    2.8039 N.am      7 UNK        -0.4739 
     45 CA         28.6207   32.6383    1.6285 C.3       7 UNK         0.0276 
     46 CB         27.1298   32.4439    1.2818 C.3       7 UNK        -0.1927 
     47 C          29.5306   32.3160    0.4383 C.2       7 UNK         0.5013 
     48 O          30.0805   33.2428   -0.1581 O.2       7 UNK        -0.5193 
     49 N          29.6934   31.0222    0.1241 N.am      8 UNK        -0.4253 
     50 CA         30.6549   30.5471   -0.8757 C.3       8 UNK         0.0242 
     51 CB         30.1212   29.2935   -1.5860 C.3       8 UNK        -0.2000 
     52 C          31.9956   30.2611   -0.1926 C.2       8 UNK         0.4948 
     53 O          33.0272   30.7700   -0.6338 O.2       8 UNK        -0.5275 
     54 N          31.9376   29.4911    0.8997 N.am      9 UNK        -0.4246 
     55 CA         33.0285   29.3258    1.8539 C.3       9 UNK         0.0261 
     56 CB         32.9933   27.8860    2.3881 C.3       9 UNK        -0.1959 
     57 C          32.8799   30.3455    2.9942 C.2       9 UNK         0.5033 
     58 O          31.8750   31.0592    3.0623 O.2       9 UNK        -0.5390 
     59 N          33.8790   30.3706    3.8819 N.am      10 UNK        -0.4215 
     60 CA         33.8835   31.1323    5.1326 C.3       10 UNK         0.0240 
     61 CB         34.9426   32.2479    5.0479 C.3       10 UNK        -0.1982 
     62 C          34.1100   30.1767    6.3183 C.2       10 UNK         0.4970 
     63 O          34.8532   30.5030    7.2455 O.2       10 UNK        -0.4916 
     64 N          33.4786   29.0004    6.2500 N.am      11 UNK        -0.4279 
     65 CA         33.4834   27.9641    7.2896 C.3       11 UNK         0.1003 
     66 C          32.4652   28.2548    8.4255 C.2       11 UNK         0.5709 
     67 N          31.3688   28.9532    8.1535 N.am      11 UNK        -0.7358 
     68 O          32.6780   27.8477    9.5649 O.2       11 UNK        -0.4999 
     69 C69        33.2290   26.5602    6.6833 C.3       12 UNK        -0.0954 
     70 S70        34.5158   26.0745    5.4878 S.3       12 UNK        -0.2268 
     71 C71        33.9736   24.3951    5.0484 C.3       12 UNK         0.0203 
     72 H72        30.7752   22.6812   -5.4363 H         1 UNK         0.0888 
     73 H73        31.4863   24.2950   -5.3632 H         1 UNK         0.0888 
     74 H74        32.2368   22.9610   -4.4856 H         1 UNK         0.0888 
     75 H75        30.3369   25.6372   -4.0448 H         1 UNK         0.3017 
     76 H76        29.2544   26.5942   -2.4235 H         1 UNK         0.0873 
     77 H77        29.3470   25.8250   -0.0792 H         1 UNK         0.0745 
     78 H78        29.8542   24.2335   -0.6087 H         1 UNK         0.0745 
     79 H79        32.0322   23.4680   -0.2139 H         1 UNK         0.0705 
     80 H80        33.4553   24.4260    0.0769 H         1 UNK         0.0705 
     81 H81        34.1291   24.5210    2.3367 H         1 UNK         0.1334 
     82 H82        31.2951   24.2673    5.5405 H         1 UNK         0.1417 
     83 H83        29.9344   24.2065    1.4991 H         1 UNK         0.1562 
     84 H84        28.6855   23.1275    3.8890 H         1 UNK         0.0748 
     85 H85        28.3621   24.7013    3.2262 H         1 UNK         0.0748 
     86 H86        29.6940   26.6722    6.4123 H         1 UNK         0.0940 
     87 H87        28.0186   27.0345    6.1597 H         1 UNK         0.0940 
     88 H88        30.0966   26.8671    3.9079 H         1 UNK         0.0703 
     89 H89        27.2942   26.8974    3.6697 H         1 UNK         0.3081 
     90 H90        26.1109   28.3224    1.9347 H         1 UNK         0.0719 
     91 H91        27.7063   28.1024   -0.6600 H         1 UNK         0.0809 
     92 H92        26.0259   28.5909   -0.5052 H         1 UNK         0.0809 
     93 H93        27.2977   29.6113    0.1310 H         1 UNK         0.0809 
     94 H94        26.6426   26.1431    0.1232 H         1 UNK         0.2990 
     95 H95        25.9865   23.5240    1.9869 H         1 UNK         0.0690 
     96 H96        23.5943   23.0241    1.4571 H         1 UNK         0.0788 
     97 H97        23.2705   24.7434    1.2378 H         1 UNK         0.0788 
     98 H98        23.7127   24.1197    2.8224 H         1 UNK         0.0788 
     99 H99        25.5178   24.9004   -0.5881 H         1 UNK         0.2993 
    100 H100       26.4930   22.0041   -2.4379 H         1 UNK         0.0949 
    101 H101       24.8522   24.5900   -2.6694 H         1 UNK         0.0767 
    102 H102       25.3052   23.5136   -3.9848 H         1 UNK         0.0767 
    103 H103       24.2168   22.9551   -2.7260 H         1 UNK         0.0767 
    104 H104       28.3569   23.1934   -2.6025 H         1 UNK         0.3013 
    105 H105       27.9423   29.5911    4.3871 H         1 UNK         0.3121 
    106 H106       30.2431   31.3158    5.1380 H         1 UNK         0.0774 
    107 H107       27.5393   31.2863    6.5887 H         1 UNK         0.0815 
    108 H108       28.8339   32.4503    6.8423 H         1 UNK         0.0815 
    109 H109       29.0766   30.7667    7.2763 H         1 UNK         0.0815 
    110 H110       29.7981   31.2240    2.6818 H         1 UNK         0.2987 
    111 H111       28.7765   33.6942    1.8612 H         1 UNK         0.0949 
    112 H112       26.8270   31.4011    1.3477 H         1 UNK         0.0806 
    113 H113       26.4928   33.0084    1.9626 H         1 UNK         0.0806 
    114 H114       26.9044   32.7951    0.2737 H         1 UNK         0.0806 
    115 H115       29.2434   30.3120    0.6907 H         1 UNK         0.3010 
    116 H116       30.8146   31.3162   -1.6348 H         1 UNK         0.0829 
    117 H117       29.1696   29.4914   -2.0789 H         1 UNK         0.0813 
    118 H118       30.8202   28.9565   -2.3526 H         1 UNK         0.0813 
    119 H119       29.9825   28.4642   -0.8927 H         1 UNK         0.0813 
    120 H120       31.0336   29.1375    1.1970 H         1 UNK         0.3038 
    121 H121       33.9892   29.4948    1.3631 H         1 UNK         0.0769 
    122 H122       32.0568   27.6625    2.8980 H         1 UNK         0.0811 
    123 H123       33.8033   27.6968    3.0915 H         1 UNK         0.0811 
    124 H124       33.1077   27.1701    1.5757 H         1 UNK         0.0811 
    125 H125       34.6541   29.7339    3.7560 H         1 UNK         0.3204 
    126 H126       32.9098   31.5981    5.2981 H         1 UNK         0.0748 
    127 H127       34.9388   32.8626    5.9490 H         1 UNK         0.0771 
    128 H128       35.9479   31.8416    4.9310 H         1 UNK         0.0771 
    129 H129       34.7488   32.9114    4.2049 H         1 UNK         0.0771 
    130 H130       32.7860   28.8690    5.5190 H         1 UNK         0.2980 
    131 H131       34.4721   27.9502    7.7525 H         1 UNK         0.0545 
    132 H132       30.7089   29.1510    8.8880 H         1 UNK         0.3459 
    133 H133       31.1754   29.2212    7.1963 H         1 UNK         0.3459 
    134 H134       32.2596   26.5335    6.1830 H         1 UNK         0.0616 
    135 H135       33.1974   25.8030    7.4690 H         1 UNK         0.0616 
    136 H136       33.6907   23.8517    5.9512 H         1 UNK         0.0634 
    137 H137       34.8241   23.8566    4.6278 H         1 UNK         0.0634 
@<TRIPOS>BOND
     1    1    2 1    
     2    1   72 1    
     3    1   73 1    
     4    1   74 1    
     5    2    3 2    
     6    2    4 am   BACKBONE|DICT|INTERRES
     7    4    5 1    
     8    4   75 1    
     9    5    6 1    
    10    5   35 1    
    11    5   76 1    
    12    6    7 1    
    13    6   77 1    
    14    6   78 1    
    15    7    8 1    
    16    8    9 1    
    17    8   79 1    
    18    8   80 1    
    19    9   10 ar   
    20    9   14 ar   
    21   10   11 ar   
    22   10   81 1    
    23   11   12 ar   
    24   11   71 1    
    25   12   13 ar   
    26   12   82 1    
    27   13   14 ar   
    28   13   15 1    
    29   14   83 1    
    30   15   16 1    
    31   15   84 1    
    32   15   85 1    
    33   16   17 1    
    34   17   18 1    
    35   17   86 1    
    36   17   87 1    
    37   18   19 1    
    38   18   37 1    
    39   18   88 1    
    40   19   20 am   BACKBONE|DICT|INTERRES
    41   19   89 1    
    42   20   21 2    
    43   20   22 1    
    44   22   23 1    
    45   22   24 1    
    46   22   90 1    
    47   23   91 1    
    48   23   92 1    
    49   23   93 1    
    50   24   25 am   BACKBONE|DICT|INTERRES
    51   24   94 1    
    52   25   26 2    
    53   25   27 1    
    54   27   28 1    
    55   27   29 1    
    56   27   95 1    
    57   28   96 1    
    58   28   97 1    
    59   28   98 1    
    60   29   30 am   BACKBONE|DICT|INTERRES
    61   29   99 1    
    62   30   31 2    
    63   30   32 1    
    64   32   33 1    
    65   32   34 1    
    66   32  100 1    
    67   33  101 1    
    68   33  102 1    
    69   33  103 1    
    70   34   35 am   BACKBONE|DICT|INTERRES
    71   34  104 1    
    72   35   36 2    
    73   37   38 2    
    74   37   39 am   BACKBONE|DICT|INTERRES
    75   39   40 1    
    76   39  105 1    
    77   40   41 1    
    78   40   42 1    
    79   40  106 1    
    80   41  107 1    
    81   41  108 1    
    82   41  109 1    
    83   42   43 2    
    84   42   44 am   BACKBONE|DICT|INTERRES
    85   44   45 1    
    86   44  110 1    
    87   45   46 1    
    88   45   47 1    
    89   45  111 1    
    90   46  112 1    
    91   46  113 1    
    92   46  114 1    
    93   47   48 2    
    94   47   49 am   BACKBONE|DICT|INTERRES
    95   49   50 1    
    96   49  115 1    
    97   50   51 1    
    98   50   52 1    
    99   50  116 1    
   100   51  117 1    
   101   51  118 1    
   102   51  119 1    
   103   52   53 2    
   104   52   54 am   BACKBONE|DICT|INTERRES
   105   54   55 1    
   106   54  120 1    
   107   55   56 1    
   108   55   57 1    
   109   55  121 1    
   110   56  122 1    
   111   56  123 1    
   112   56  124 1    
   113   57   58 2    
   114   57   59 am   BACKBONE|DICT|INTERRES
   115   59   60 1    
   116   59  125 1    
   117   60   61 1    
   118   60   62 1    
   119   60  126 1    
   120   61  127 1    
   121   61  128 1    
   122   61  129 1    
   123   62   63 2    
   124   62   64 am   BACKBONE|DICT|INTERRES
   125   64   65 1    
   126   64  130 1    
   127   65   66 1    
   128   65   69 1    
   129   65  131 1    
   130   66   67 am   BACKBONE|DICT|INTERRES
   131   66   68 2    
   132   67  132 1    
   133   67  133 1    
   134   69   70 1    
   135   69  134 1    
   136   69  135 1    
   137   70   71 1    
   138   71  136 1    
   139   71  137 1    
@<TRIPOS>SUBSTRUCTURE
     1 UNK         1 GROUP             0       ****    0 ROOT    
