@<TRIPOS>MOLECULE
3R136
137   139    1
SMALL
USER_CHARGES


@<TRIPOS>ATOM
      1 CA         28.3194   22.8465    7.2589 C.3       0 UNK        -0.1979 
      2 C          27.9254   22.6968    5.7966 C.2       0 UNK         0.4864 
      3 O          27.0092   21.9342    5.4860 O.2       0 UNK        -0.5359 
      4 N          28.6162   23.4089    4.8971 N.am      1 UNK        -0.4318 
      5 CA         28.3575   23.4167    3.4571 C.3       1 UNK         0.0824 
      6 C6         29.5586   24.0177    2.6942 C.3       12 UNK        -0.0944 
      7 S7         29.4365   23.7639    0.8923 S.3       12 UNK        -0.2672 
      8 C8         29.4172   25.4822    0.3065 C.3       12 UNK         0.0333 
      9 C9         30.8284   25.9935    0.0574 C.ar      12 UNK        -0.0807 
     10 C10        31.5778   26.5574    1.0959 C.ar      12 UNK        -0.0894 
     11 C11        32.8906   26.9861    0.8726 C.ar      12 UNK        -0.0804 
     12 C12        33.4328   26.8874   -0.4133 C.ar      12 UNK        -0.0824 
     13 C13        32.6829   26.3563   -1.4668 C.ar      12 UNK        -0.0762 
     14 C14        31.3932   25.8839   -1.2168 C.ar      12 UNK        -0.0782 
     15 C15        33.2734   26.2883   -2.8710 C.3       12 UNK         0.0230 
     16 S16        32.3795   27.3354   -4.0746 S.3       12 UNK        -0.2608 
     17 C17        32.3398   28.9640   -3.2365 C.3       12 UNK        -0.0989 
     18 CA         30.9172   29.5727   -3.0335 C.3       5 UNK         0.0716 
     19 N          29.8284   28.5777   -3.0114 N.am      5 UNK        -0.4135 
     20 C          28.5149   28.8585   -2.9917 C.2       4 UNK         0.5031 
     21 O          28.0598   30.0031   -3.0016 O.2       4 UNK        -0.5229 
     22 CA         27.5289   27.6831   -2.9393 C.3       4 UNK         0.0329 
     23 CB         28.0808   26.3470   -3.4768 C.3       4 UNK        -0.2001 
     24 N          27.0460   27.5521   -1.5648 N.am      4 UNK        -0.4303 
     25 C          25.8431   27.0899   -1.2075 C.2       3 UNK         0.5044 
     26 O          25.0388   26.6052   -2.0055 O.2       3 UNK        -0.5152 
     27 CA         25.4549   27.2804    0.2749 C.3       3 UNK         0.0319 
     28 CB         24.1122   28.0264    0.4104 C.3       3 UNK        -0.2001 
     29 N          25.4518   26.0542    1.0854 N.am      3 UNK        -0.4354 
     30 C          24.6893   24.9596    0.9515 C.2       2 UNK         0.4964 
     31 O          23.9058   24.7650    0.0219 O.2       2 UNK        -0.5047 
     32 CA         24.7836   23.9203    2.0893 C.3       2 UNK         0.0288 
     33 CB         23.9247   22.6679    1.8241 C.3       2 UNK        -0.2113 
     34 N          26.1520   23.4885    2.3843 N.am      2 UNK        -0.4145 
     35 C          27.0327   24.1481    3.1473 C.2       1 UNK         0.5006 
     36 O          26.8392   25.2861    3.5875 O.2       1 UNK        -0.5103 
     37 C          30.8910   30.4710   -1.7767 C.2       5 UNK         0.5055 
     38 O          31.0889   31.6833   -1.8713 O.2       5 UNK        -0.5220 
     39 N          30.6001   29.8381   -0.6376 N.am      6 UNK        -0.4450 
     40 CA         30.1747   30.4349    0.6203 C.3       6 UNK         0.0367 
     41 CB         31.3861   30.6668    1.5403 C.3       6 UNK        -0.1929 
     42 C          29.1342   29.4709    1.2138 C.2       6 UNK         0.5070 
     43 O          28.5941   28.6423    0.4763 O.2       6 UNK        -0.5237 
     44 N          28.8701   29.5634    2.5186 N.am      7 UNK        -0.4739 
     45 CA         27.9822   28.6595    3.2478 C.3       7 UNK         0.0276 
     46 CB         26.6111   29.3318    3.4345 C.3       7 UNK        -0.1927 
     47 C          28.6125   28.3169    4.6004 C.2       7 UNK         0.5013 
     48 O          29.5016   29.0407    5.0602 O.2       7 UNK        -0.5193 
     49 N          28.1306   27.2280    5.2159 N.am      8 UNK        -0.4253 
     50 CA         28.5600   26.6886    6.5093 C.3       8 UNK         0.0242 
     51 CB         28.1280   27.6227    7.6635 C.3       8 UNK        -0.2000 
     52 C          30.0634   26.3616    6.4837 C.2       8 UNK         0.4948 
     53 O          30.4497   25.4017    5.8145 O.2       8 UNK        -0.5275 
     54 N          30.8698   27.1794    7.1664 N.am      9 UNK        -0.4246 
     55 CA         32.3293   27.1714    7.1096 C.3       9 UNK         0.0261 
     56 CB         32.8898   26.4304    8.3385 C.3       9 UNK        -0.1959 
     57 C          32.8656   28.6089    6.9811 C.2       9 UNK         0.5033 
     58 O          33.9619   28.8932    7.4680 O.2       9 UNK        -0.5390 
     59 N          32.1008   29.5019    6.3277 N.am      10 UNK        -0.4215 
     60 CA         32.4137   30.9321    6.1865 C.3       10 UNK         0.0240 
     61 CB         31.1930   31.6724    5.6174 C.3       10 UNK        -0.1982 
     62 C          33.6820   31.2498    5.3692 C.2       10 UNK         0.4970 
     63 O          34.1625   32.3821    5.4363 O.2       10 UNK        -0.4916 
     64 N          34.2200   30.2580    4.6467 N.am      11 UNK        -0.4279 
     65 CA         35.5558   30.3059    4.0322 C.3       11 UNK         0.1003 
     66 C          36.7256   30.3683    5.0611 C.2       11 UNK         0.5709 
     67 N          36.5289   29.9992    6.3232 N.am      11 UNK        -0.7358 
     68 O          37.8332   30.7626    4.7040 O.2       11 UNK        -0.4999 
     69 C69        35.7854   29.1325    3.0447 C.3       12 UNK        -0.0954 
     70 S70        34.5726   29.0698    1.6846 S.3       12 UNK        -0.2268 
     71 C71        33.7447   27.4838    2.0333 C.3       12 UNK         0.0203 
     72 H72        29.2528   23.3968    7.3748 H         1 UNK         0.0888 
     73 H73        27.5389   23.3740    7.8066 H         1 UNK         0.0888 
     74 H74        28.4514   21.8654    7.7142 H         1 UNK         0.0888 
     75 H75        29.3452   24.0465    5.2132 H         1 UNK         0.3017 
     76 H76        28.2571   22.3735    3.1484 H         1 UNK         0.0873 
     77 H77        29.6716   25.0751    2.9375 H         1 UNK         0.0745 
     78 H78        30.4831   23.5397    3.0225 H         1 UNK         0.0745 
     79 H79        28.8317   25.5238   -0.6103 H         1 UNK         0.0705 
     80 H80        28.8938   26.1172    1.0212 H         1 UNK         0.0705 
     81 H81        31.1513   26.6316    2.0862 H         1 UNK         0.1334 
     82 H82        34.4458   27.2220   -0.5911 H         1 UNK         0.1417 
     83 H83        30.8358   25.4255   -2.0199 H         1 UNK         0.1562 
     84 H84        33.2540   25.2544   -3.2184 H         1 UNK         0.0748 
     85 H85        34.3229   26.5869   -2.8630 H         1 UNK         0.0748 
     86 H86        32.9405   29.6556   -3.8299 H         1 UNK         0.0940 
     87 H87        32.8791   28.8833   -2.2917 H         1 UNK         0.0940 
     88 H88        30.7128   30.2184   -3.8904 H         1 UNK         0.0703 
     89 H89        30.1252   27.6140   -3.0479 H         1 UNK         0.3081 
     90 H90        26.6889   27.9706   -3.5757 H         1 UNK         0.0719 
     91 H91        28.4891   26.4661   -4.4814 H         1 UNK         0.0809 
     92 H92        27.2909   25.5985   -3.5419 H         1 UNK         0.0809 
     93 H93        28.8638   25.9368   -2.8469 H         1 UNK         0.0809 
     94 H94        27.6314   27.9844   -0.8469 H         1 UNK         0.2990 
     95 H95        26.2047   27.9223    0.7324 H         1 UNK         0.0690 
     96 H96        23.8855   28.2489    1.4531 H         1 UNK         0.0788 
     97 H97        23.2822   27.4488    0.0020 H         1 UNK         0.0788 
     98 H98        24.1400   28.9761   -0.1254 H         1 UNK         0.0788 
     99 H99        26.0598   26.0675    1.8972 H         1 UNK         0.2993 
    100 H100       24.3795   24.4054    2.9809 H         1 UNK         0.0949 
    101 H101       23.9582   21.9780    2.6678 H         1 UNK         0.0767 
    102 H102       22.8778   22.9342    1.6711 H         1 UNK         0.0767 
    103 H103       24.2589   22.1299    0.9360 H         1 UNK         0.0767 
    104 H104       26.4161   22.5844    2.0198 H         1 UNK         0.3013 
    105 H105       30.3993   28.8470   -0.6887 H         1 UNK         0.3121 
    106 H106       29.6771   31.3857    0.4191 H         1 UNK         0.0774 
    107 H107       31.1339   31.3489    2.3504 H         1 UNK         0.0815 
    108 H108       31.7372   29.7358    1.9850 H         1 UNK         0.0815 
    109 H109       32.2199   31.1144    0.9992 H         1 UNK         0.0815 
    110 H110       29.3952   30.2022    3.1009 H         1 UNK         0.2987 
    111 H111       27.8575   27.7254    2.6962 H         1 UNK         0.0949 
    112 H112       26.6853   30.2309    4.0476 H         1 UNK         0.0806 
    113 H113       26.1738   29.6183    2.4783 H         1 UNK         0.0806 
    114 H114       25.9065   28.6581    3.9237 H         1 UNK         0.0806 
    115 H115       27.4666   26.6474    4.7069 H         1 UNK         0.3010 
    116 H116       28.0355   25.7423    6.6418 H         1 UNK         0.0829 
    117 H117       27.0433   27.7284    7.6879 H         1 UNK         0.0813 
    118 H118       28.4284   27.2188    8.6313 H         1 UNK         0.0813 
    119 H119       28.5477   28.6252    7.5743 H         1 UNK         0.0813 
    120 H120       30.4505   27.9463    7.6744 H         1 UNK         0.3038 
    121 H121       32.6608   26.6456    6.2115 H         1 UNK         0.0769 
    122 H122       32.6286   26.9387    9.2673 H         1 UNK         0.0811 
    123 H123       33.9777   26.3632    8.2956 H         1 UNK         0.0811 
    124 H124       32.5068   25.4114    8.3940 H         1 UNK         0.0811 
    125 H125       31.2176   29.1996    5.9192 H         1 UNK         0.3204 
    126 H126       32.5946   31.3193    7.1914 H         1 UNK         0.0748 
    127 H127       30.3221   31.5537    6.2625 H         1 UNK         0.0771 
    128 H128       31.3849   32.7425    5.5276 H         1 UNK         0.0771 
    129 H129       30.9266   31.3031    4.6289 H         1 UNK         0.0771 
    130 H130       33.7589   29.3628    4.6421 H         1 UNK         0.2980 
    131 H131       35.6083   31.2325    3.4574 H         1 UNK         0.0545 
    132 H132       35.6250   29.6629    6.6390 H         1 UNK         0.3459 
    133 H133       37.2968   30.0491    6.9731 H         1 UNK         0.3459 
    134 H134       36.7710   29.2157    2.5826 H         1 UNK         0.0616 
    135 H135       35.7878   28.1831    3.5830 H         1 UNK         0.0616 
    136 H136       33.1458   27.5936    2.9387 H         1 UNK         0.0634 
    137 H137       34.4972   26.7231    2.2451 H         1 UNK         0.0634 
@<TRIPOS>BOND
     1    1    2 1    
     2    1   72 1    
     3    1   73 1    
     4    1   74 1    
     5    2    3 2    
     6    2    4 am   BACKBONE|DICT|INTERRES
     7    4    5 1    
     8    4   75 1    
     9    5    6 1    
    10    5   35 1    
    11    5   76 1    
    12    6    7 1    
    13    6   77 1    
    14    6   78 1    
    15    7    8 1    
    16    8    9 1    
    17    8   79 1    
    18    8   80 1    
    19    9   10 ar   
    20    9   14 ar   
    21   10   11 ar   
    22   10   81 1    
    23   11   12 ar   
    24   11   71 1    
    25   12   13 ar   
    26   12   82 1    
    27   13   14 ar   
    28   13   15 1    
    29   14   83 1    
    30   15   16 1    
    31   15   84 1    
    32   15   85 1    
    33   16   17 1    
    34   17   18 1    
    35   17   86 1    
    36   17   87 1    
    37   18   19 1    
    38   18   37 1    
    39   18   88 1    
    40   19   20 am   BACKBONE|DICT|INTERRES
    41   19   89 1    
    42   20   21 2    
    43   20   22 1    
    44   22   23 1    
    45   22   24 1    
    46   22   90 1    
    47   23   91 1    
    48   23   92 1    
    49   23   93 1    
    50   24   25 am   BACKBONE|DICT|INTERRES
    51   24   94 1    
    52   25   26 2    
    53   25   27 1    
    54   27   28 1    
    55   27   29 1    
    56   27   95 1    
    57   28   96 1    
    58   28   97 1    
    59   28   98 1    
    60   29   30 am   BACKBONE|DICT|INTERRES
    61   29   99 1    
    62   30   31 2    
    63   30   32 1    
    64   32   33 1    
    65   32   34 1    
    66   32  100 1    
    67   33  101 1    
    68   33  102 1    
    69   33  103 1    
    70   34   35 am   BACKBONE|DICT|INTERRES
    71   34  104 1    
    72   35   36 2    
    73   37   38 2    
    74   37   39 am   BACKBONE|DICT|INTERRES
    75   39   40 1    
    76   39  105 1    
    77   40   41 1    
    78   40   42 1    
    79   40  106 1    
    80   41  107 1    
    81   41  108 1    
    82   41  109 1    
    83   42   43 2    
    84   42   44 am   BACKBONE|DICT|INTERRES
    85   44   45 1    
    86   44  110 1    
    87   45   46 1    
    88   45   47 1    
    89   45  111 1    
    90   46  112 1    
    91   46  113 1    
    92   46  114 1    
    93   47   48 2    
    94   47   49 am   BACKBONE|DICT|INTERRES
    95   49   50 1    
    96   49  115 1    
    97   50   51 1    
    98   50   52 1    
    99   50  116 1    
   100   51  117 1    
   101   51  118 1    
   102   51  119 1    
   103   52   53 2    
   104   52   54 am   BACKBONE|DICT|INTERRES
   105   54   55 1    
   106   54  120 1    
   107   55   56 1    
   108   55   57 1    
   109   55  121 1    
   110   56  122 1    
   111   56  123 1    
   112   56  124 1    
   113   57   58 2    
   114   57   59 am   BACKBONE|DICT|INTERRES
   115   59   60 1    
   116   59  125 1    
   117   60   61 1    
   118   60   62 1    
   119   60  126 1    
   120   61  127 1    
   121   61  128 1    
   122   61  129 1    
   123   62   63 2    
   124   62   64 am   BACKBONE|DICT|INTERRES
   125   64   65 1    
   126   64  130 1    
   127   65   66 1    
   128   65   69 1    
   129   65  131 1    
   130   66   67 am   BACKBONE|DICT|INTERRES
   131   66   68 2    
   132   67  132 1    
   133   67  133 1    
   134   69   70 1    
   135   69  134 1    
   136   69  135 1    
   137   70   71 1    
   138   71  136 1    
   139   71  137 1    
@<TRIPOS>SUBSTRUCTURE
     1 UNK         1 GROUP             0       ****    0 ROOT    
