@<TRIPOS>MOLECULE
3R136
137   139    1
SMALL
USER_CHARGES


@<TRIPOS>ATOM
      1 CA         25.7118   18.5858    0.2916 C.3       0 UNK        -0.1979 
      2 C          27.0986   19.1968    0.1525 C.2       0 UNK         0.4864 
      3 O          27.9012   18.7158   -0.6496 O.2       0 UNK        -0.5359 
      4 N          27.3884   20.2453    0.9333 N.am      1 UNK        -0.4318 
      5 CA         28.6525   20.9891    0.9067 C.3       1 UNK         0.0824 
      6 C6         28.8096   21.9043    2.1453 C.3       12 UNK        -0.0944 
      7 S7         28.7054   20.9939    3.7280 S.3       12 UNK        -0.2672 
      8 C8         30.3087   21.3759    4.5225 C.3       12 UNK         0.0333 
      9 C9         30.6204   22.8690    4.6204 C.ar      12 UNK        -0.0807 
     10 C10        31.9295   23.3142    4.4132 C.ar      12 UNK        -0.0894 
     11 C11        32.2306   24.6792    4.4376 C.ar      12 UNK        -0.0804 
     12 C12        31.2113   25.6085    4.6673 C.ar      12 UNK        -0.0824 
     13 C13        29.8982   25.1765    4.8753 C.ar      12 UNK        -0.0762 
     14 C14        29.6166   23.8077    4.8837 C.ar      12 UNK        -0.0782 
     15 C15        28.7659   26.1797    5.0250 C.3       12 UNK         0.0230 
     16 S16        27.6984   26.1264    3.5527 S.3       12 UNK        -0.2608 
     17 C17        26.5903   27.5450    3.8310 C.3       12 UNK        -0.0989 
     18 CA         27.0758   28.8225    3.1039 C.3       5 UNK         0.0716 
     19 N          27.3753   28.5905    1.6837 N.am      5 UNK        -0.4135 
     20 C          27.9397   29.4825    0.8612 C.2       4 UNK         0.5031 
     21 O          28.2541   30.6225    1.2107 O.2       4 UNK        -0.5229 
     22 CA         28.2161   29.0077   -0.5755 C.3       4 UNK         0.0329 
     23 CB         28.4689   30.1781   -1.5435 C.3       4 UNK        -0.2001 
     24 N          29.3676   28.1055   -0.5957 N.am      4 UNK        -0.4303 
     25 C          29.3212   26.8050   -0.2820 C.2       3 UNK         0.5044 
     26 O          28.2801   26.2055   -0.0032 O.2       3 UNK        -0.5152 
     27 CA         30.6738   26.0776   -0.2081 C.3       3 UNK         0.0319 
     28 CB         31.2226   26.1344    1.2259 C.3       3 UNK        -0.2001 
     29 N          30.5760   24.6761   -0.6182 N.am      3 UNK        -0.4354 
     30 C          30.3647   24.2554   -1.8731 C.2       2 UNK         0.4964 
     31 O          30.2505   25.0140   -2.8370 O.2       2 UNK        -0.5047 
     32 CA         30.3045   22.7340   -2.1098 C.3       2 UNK         0.0288 
     33 CB         31.6333   22.2323   -2.7004 C.3       2 UNK        -0.2113 
     34 N          29.9992   21.9596   -0.9014 N.am      2 UNK        -0.4145 
     35 C          28.7694   21.8236   -0.3865 C.2       1 UNK         0.5006 
     36 O          27.7624   22.3446   -0.8743 O.2       1 UNK        -0.5103 
     37 C          26.0793   29.9801    3.3205 C.2       5 UNK         0.5055 
     38 O          26.2115   30.7153    4.2986 O.2       5 UNK        -0.5220 
     39 N          25.1412   30.1619    2.3782 N.am      6 UNK        -0.4450 
     40 CA         24.1886   31.2772    2.3410 C.3       6 UNK         0.0367 
     41 CB         23.1364   31.0061    1.2537 C.3       6 UNK        -0.1929 
     42 C          24.8506   32.6510    2.1151 C.2       6 UNK         0.5070 
     43 O          24.2883   33.6634    2.5317 O.2       6 UNK        -0.5237 
     44 N          26.0331   32.6639    1.4840 N.am      7 UNK        -0.4739 
     45 CA         26.8764   33.8480    1.2984 C.3       7 UNK         0.0276 
     46 CB         27.5304   33.7741   -0.0929 C.3       7 UNK        -0.1927 
     47 C          27.9490   33.9728    2.3987 C.2       7 UNK         0.5013 
     48 O          28.7592   34.8983    2.3357 O.2       7 UNK        -0.5193 
     49 N          27.9471   33.0435    3.3687 N.am      8 UNK        -0.4253 
     50 CA         28.9013   32.8894    4.4705 C.3       8 UNK         0.0242 
     51 CB         28.7988   34.0720    5.4581 C.3       8 UNK        -0.2000 
     52 C          30.3405   32.6214    3.9886 C.2       8 UNK         0.4948 
     53 O          31.2876   33.1569    4.5694 O.2       8 UNK        -0.5275 
     54 N          30.4864   31.8011    2.9357 N.am      9 UNK        -0.4246 
     55 CA         31.7813   31.3825    2.3930 C.3       9 UNK         0.0261 
     56 CB         31.5652   30.6051    1.0861 C.3       9 UNK        -0.1959 
     57 C          32.5758   30.5312    3.3989 C.2       9 UNK         0.5033 
     58 O          32.0367   29.5598    3.9362 O.2       9 UNK        -0.5390 
     59 N          33.8398   30.9090    3.6212 N.am      10 UNK        -0.4215 
     60 CA         34.7816   30.1960    4.4837 C.3       10 UNK         0.0240 
     61 CB         35.9001   31.1634    4.9070 C.3       10 UNK        -0.1982 
     62 C          35.3724   28.9700    3.7706 C.2       10 UNK         0.4970 
     63 O          35.4423   28.9460    2.5392 O.2       10 UNK        -0.4916 
     64 N          35.8194   27.9927    4.5656 N.am      11 UNK        -0.4279 
     65 CA         36.4411   26.7467    4.0878 C.3       11 UNK         0.1003 
     66 C          37.9237   26.8910    3.6341 C.2       11 UNK         0.5709 
     67 N          38.5806   28.0259    3.8444 N.am      11 UNK        -0.7358 
     68 O          38.4864   25.9551    3.0708 O.2       11 UNK        -0.4999 
     69 C69        36.2813   25.5930    5.1163 C.3       12 UNK        -0.0954 
     70 S70        34.5791   25.3310    5.7267 S.3       12 UNK        -0.2268 
     71 C71        33.6507   25.1494    4.1747 C.3       12 UNK         0.0203 
     72 H72        25.1808   18.6409   -0.6583 H         1 UNK         0.0888 
     73 H73        25.7905   17.5375    0.5786 H         1 UNK         0.0888 
     74 H74        25.1139   19.0992    1.0445 H         1 UNK         0.0888 
     75 H75        26.6897   20.6027    1.5686 H         1 UNK         0.3017 
     76 H76        29.4646   20.2584    0.9167 H         1 UNK         0.0873 
     77 H77        29.7626   22.4336    2.0962 H         1 UNK         0.0745 
     78 H78        28.0392   22.6786    2.1542 H         1 UNK         0.0745 
     79 H79        30.3130   20.9506    5.5267 H         1 UNK         0.0705 
     80 H80        31.0926   20.8614    3.9644 H         1 UNK         0.0705 
     81 H81        32.7164   22.5987    4.2159 H         1 UNK         0.1334 
     82 H82        31.4376   26.6668    4.6542 H         1 UNK         0.1417 
     83 H83        28.5974   23.4807    5.0379 H         1 UNK         0.1562 
     84 H84        29.1581   27.1900    5.1536 H         1 UNK         0.0748 
     85 H85        28.1797   25.9493    5.9158 H         1 UNK         0.0748 
     86 H86        26.4943   27.7233    4.9042 H         1 UNK         0.0940 
     87 H87        25.5959   27.2591    3.4819 H         1 UNK         0.0940 
     88 H88        28.0153   29.1289    3.5699 H         1 UNK         0.0703 
     89 H89        27.2372   27.6456    1.3431 H         1 UNK         0.3081 
     90 H90        27.3308   28.4742   -0.9286 H         1 UNK         0.0719 
     91 H91        27.6199   30.8629   -1.5548 H         1 UNK         0.0809 
     92 H92        29.3500   30.7571   -1.2673 H         1 UNK         0.0809 
     93 H93        28.6095   29.8231   -2.5645 H         1 UNK         0.0809 
     94 H94        30.2641   28.5276   -0.7898 H         1 UNK         0.2990 
     95 H95        31.3811   26.5775   -0.8734 H         1 UNK         0.0690 
     96 H96        30.5524   25.6305    1.9236 H         1 UNK         0.0788 
     97 H97        31.3337   27.1637    1.5699 H         1 UNK         0.0788 
     98 H98        32.2020   25.6615    1.2993 H         1 UNK         0.0788 
     99 H99        30.6286   23.9869    0.1154 H         1 UNK         0.2993 
    100 H100       29.5177   22.5540   -2.8462 H         1 UNK         0.0949 
    101 H101       31.5831   21.1712   -2.9458 H         1 UNK         0.0767 
    102 H102       31.8768   22.7640   -3.6215 H         1 UNK         0.0767 
    103 H103       32.4647   22.3799   -2.0098 H         1 UNK         0.0767 
    104 H104       30.7767   21.4971   -0.4516 H         1 UNK         0.3013 
    105 H105       25.1038   29.5077    1.6098 H         1 UNK         0.3121 
    106 H106       23.6812   31.3157    3.3075 H         1 UNK         0.0774 
    107 H107       22.3946   31.8055    1.2217 H         1 UNK         0.0815 
    108 H108       23.5864   30.9406    0.2623 H         1 UNK         0.0815 
    109 H109       22.5987   30.0768    1.4428 H         1 UNK         0.0815 
    110 H110       26.4540   31.7840    1.2102 H         1 UNK         0.2987 
    111 H111       26.2638   34.7514    1.3389 H         1 UNK         0.0949 
    112 H112       28.2285   32.9399   -0.1668 H         1 UNK         0.0806 
    113 H113       26.7840   33.6604   -0.8790 H         1 UNK         0.0806 
    114 H114       28.0910   34.6843   -0.3096 H         1 UNK         0.0806 
    115 H115       27.2257   32.3334    3.3324 H         1 UNK         0.3010 
    116 H116       28.5974   31.9901    5.0082 H         1 UNK         0.0829 
    117 H117       29.1427   35.0052    5.0111 H         1 UNK         0.0813 
    118 H118       27.7728   34.2188    5.7954 H         1 UNK         0.0813 
    119 H119       29.4076   33.8939    6.3453 H         1 UNK         0.0813 
    120 H120       29.6607   31.4124    2.4913 H         1 UNK         0.3038 
    121 H121       32.3486   32.2864    2.1612 H         1 UNK         0.0769 
    122 H122       30.9871   29.6968    1.2564 H         1 UNK         0.0811 
    123 H123       32.5177   30.3088    0.6447 H         1 UNK         0.0811 
    124 H124       31.0382   31.2114    0.3501 H         1 UNK         0.0811 
    125 H125       34.2097   31.6954    3.1073 H         1 UNK         0.3204 
    126 H126       34.2516   29.8602    5.3781 H         1 UNK         0.0748 
    127 H127       36.5981   30.6826    5.5937 H         1 UNK         0.0771 
    128 H128       36.4761   31.5167    4.0504 H         1 UNK         0.0771 
    129 H129       35.4954   32.0356    5.4212 H         1 UNK         0.0771 
    130 H130       35.7395   28.0894    5.5671 H         1 UNK         0.2980 
    131 H131       35.9103   26.4467    3.1831 H         1 UNK         0.0545 
    132 H132       39.5383   28.1044    3.5405 H         1 UNK         0.3459 
    133 H133       38.1302   28.8015    4.3016 H         1 UNK         0.3459 
    134 H134       36.9148   25.7758    5.9862 H         1 UNK         0.0616 
    135 H135       36.6253   24.6510    4.6851 H         1 UNK         0.0616 
    136 H136       33.6270   26.1048    3.6484 H         1 UNK         0.0634 
    137 H137       34.1664   24.4442    3.5210 H         1 UNK         0.0634 
@<TRIPOS>BOND
     1    1    2 1    
     2    1   72 1    
     3    1   73 1    
     4    1   74 1    
     5    2    3 2    
     6    2    4 am   BACKBONE|DICT|INTERRES
     7    4    5 1    
     8    4   75 1    
     9    5    6 1    
    10    5   35 1    
    11    5   76 1    
    12    6    7 1    
    13    6   77 1    
    14    6   78 1    
    15    7    8 1    
    16    8    9 1    
    17    8   79 1    
    18    8   80 1    
    19    9   10 ar   
    20    9   14 ar   
    21   10   11 ar   
    22   10   81 1    
    23   11   12 ar   
    24   11   71 1    
    25   12   13 ar   
    26   12   82 1    
    27   13   14 ar   
    28   13   15 1    
    29   14   83 1    
    30   15   16 1    
    31   15   84 1    
    32   15   85 1    
    33   16   17 1    
    34   17   18 1    
    35   17   86 1    
    36   17   87 1    
    37   18   19 1    
    38   18   37 1    
    39   18   88 1    
    40   19   20 am   BACKBONE|DICT|INTERRES
    41   19   89 1    
    42   20   21 2    
    43   20   22 1    
    44   22   23 1    
    45   22   24 1    
    46   22   90 1    
    47   23   91 1    
    48   23   92 1    
    49   23   93 1    
    50   24   25 am   BACKBONE|DICT|INTERRES
    51   24   94 1    
    52   25   26 2    
    53   25   27 1    
    54   27   28 1    
    55   27   29 1    
    56   27   95 1    
    57   28   96 1    
    58   28   97 1    
    59   28   98 1    
    60   29   30 am   BACKBONE|DICT|INTERRES
    61   29   99 1    
    62   30   31 2    
    63   30   32 1    
    64   32   33 1    
    65   32   34 1    
    66   32  100 1    
    67   33  101 1    
    68   33  102 1    
    69   33  103 1    
    70   34   35 am   BACKBONE|DICT|INTERRES
    71   34  104 1    
    72   35   36 2    
    73   37   38 2    
    74   37   39 am   BACKBONE|DICT|INTERRES
    75   39   40 1    
    76   39  105 1    
    77   40   41 1    
    78   40   42 1    
    79   40  106 1    
    80   41  107 1    
    81   41  108 1    
    82   41  109 1    
    83   42   43 2    
    84   42   44 am   BACKBONE|DICT|INTERRES
    85   44   45 1    
    86   44  110 1    
    87   45   46 1    
    88   45   47 1    
    89   45  111 1    
    90   46  112 1    
    91   46  113 1    
    92   46  114 1    
    93   47   48 2    
    94   47   49 am   BACKBONE|DICT|INTERRES
    95   49   50 1    
    96   49  115 1    
    97   50   51 1    
    98   50   52 1    
    99   50  116 1    
   100   51  117 1    
   101   51  118 1    
   102   51  119 1    
   103   52   53 2    
   104   52   54 am   BACKBONE|DICT|INTERRES
   105   54   55 1    
   106   54  120 1    
   107   55   56 1    
   108   55   57 1    
   109   55  121 1    
   110   56  122 1    
   111   56  123 1    
   112   56  124 1    
   113   57   58 2    
   114   57   59 am   BACKBONE|DICT|INTERRES
   115   59   60 1    
   116   59  125 1    
   117   60   61 1    
   118   60   62 1    
   119   60  126 1    
   120   61  127 1    
   121   61  128 1    
   122   61  129 1    
   123   62   63 2    
   124   62   64 am   BACKBONE|DICT|INTERRES
   125   64   65 1    
   126   64  130 1    
   127   65   66 1    
   128   65   69 1    
   129   65  131 1    
   130   66   67 am   BACKBONE|DICT|INTERRES
   131   66   68 2    
   132   67  132 1    
   133   67  133 1    
   134   69   70 1    
   135   69  134 1    
   136   69  135 1    
   137   70   71 1    
   138   71  136 1    
   139   71  137 1    
@<TRIPOS>SUBSTRUCTURE
     1 UNK         1 GROUP             0       ****    0 ROOT    
