@<TRIPOS>MOLECULE
3R136
137   139    1
SMALL
USER_CHARGES


@<TRIPOS>ATOM
      1 CA         30.8550   25.3653   -4.4059 C.3       0 UNK        -0.1979 
      2 C          29.9285   26.0163   -3.3900 C.2       0 UNK         0.4864 
      3 O          29.3755   27.0824   -3.6607 O.2       0 UNK        -0.5359 
      4 N          29.7550   25.3829   -2.2224 N.am      1 UNK        -0.4318 
      5 CA         28.9142   25.8736   -1.1245 C.3       1 UNK         0.0824 
      6 C6         29.3590   25.2938    0.2415 C.3       12 UNK        -0.0944 
      7 S7         29.3200   23.4691    0.3394 S.3       12 UNK        -0.2672 
      8 C8         31.0052   23.0927    0.9232 C.3       12 UNK         0.0333 
      9 C9         31.2841   23.7084    2.2879 C.ar      12 UNK        -0.0807 
     10 C10        32.2713   24.6882    2.4343 C.ar      12 UNK        -0.0894 
     11 C11        32.5164   25.2686    3.6823 C.ar      12 UNK        -0.0804 
     12 C12        31.7573   24.8697    4.7872 C.ar      12 UNK        -0.0824 
     13 C13        30.7631   23.8952    4.6518 C.ar      12 UNK        -0.0762 
     14 C14        30.5466   23.3033    3.4040 C.ar      12 UNK        -0.0782 
     15 C15        29.9059   23.4952    5.8455 C.3       12 UNK         0.0230 
     16 S16        28.1562   23.9630    5.6210 S.3       12 UNK        -0.2608 
     17 C17        28.2708   25.7763    5.4410 C.3       12 UNK        -0.0989 
     18 CA         28.2406   26.2158    3.9508 C.3       5 UNK         0.0716 
     19 N          27.0116   25.8324    3.2421 N.am      5 UNK        -0.4135 
     20 C          25.7755   26.3117    3.4503 C.2       4 UNK         0.5031 
     21 O          25.4896   27.1217    4.3328 O.2       4 UNK        -0.5229 
     22 CA         24.6619   25.8314    2.5017 C.3       4 UNK         0.0329 
     23 CB         24.1455   27.0019    1.6467 C.3       4 UNK        -0.2001 
     24 N          25.0933   24.7505    1.6094 N.am      4 UNK        -0.4303 
     25 C          24.9857   23.4424    1.8888 C.2       3 UNK         0.5044 
     26 O          24.5251   23.0187    2.9497 O.2       3 UNK        -0.5152 
     27 CA         25.4954   22.4284    0.8395 C.3       3 UNK         0.0319 
     28 CB         24.5445   21.2227    0.6826 C.3       3 UNK        -0.2001 
     29 N          25.8301   23.0124   -0.4667 N.am      3 UNK        -0.4354 
     30 C          25.0059   23.6017   -1.3496 C.2       2 UNK         0.4964 
     31 O          23.7832   23.6604   -1.2141 O.2       2 UNK        -0.5047 
     32 CA         25.6777   24.2739   -2.5693 C.3       2 UNK         0.0288 
     33 CB         24.8152   25.4042   -3.1713 C.3       2 UNK        -0.2113 
     34 N          27.0394   24.7605   -2.2916 N.am      2 UNK        -0.4145 
     35 C          27.4055   25.6350   -1.3384 C.2       1 UNK         0.5006 
     36 O          26.6111   26.1870   -0.5754 O.2       1 UNK        -0.5103 
     37 C          28.5510   27.7142    3.7534 C.2       5 UNK         0.5055 
     38 O          28.6968   28.4544    4.7272 O.2       5 UNK        -0.5220 
     39 N          28.6259   28.1316    2.4827 N.am      6 UNK        -0.4450 
     40 CA         28.8744   29.5102    2.0687 C.3       6 UNK         0.0367 
     41 CB         27.5370   30.2746    1.9914 C.3       6 UNK        -0.1929 
     42 C          29.6702   29.5498    0.7535 C.2       6 UNK         0.5070 
     43 O          29.3365   30.3314   -0.1375 O.2       6 UNK        -0.5237 
     44 N          30.7132   28.7106    0.6403 N.am      7 UNK        -0.4739 
     45 CA         31.6598   28.7494   -0.4877 C.3       7 UNK         0.0276 
     46 CB         32.5074   27.4655   -0.5255 C.3       7 UNK        -0.1927 
     47 C          32.5811   29.9830   -0.4464 C.2       7 UNK         0.5013 
     48 O          33.0252   30.4475   -1.4969 O.2       7 UNK        -0.5193 
     49 N          32.8430   30.4858    0.7633 N.am      8 UNK        -0.4253 
     50 CA         33.6237   31.6763    1.0663 C.3       8 UNK         0.0242 
     51 CB         35.1222   31.3202    1.0953 C.3       8 UNK        -0.2000 
     52 C          33.1550   32.1998    2.4277 C.2       8 UNK         0.4948 
     53 O          32.5001   31.4653    3.1727 O.2       8 UNK        -0.5275 
     54 N          33.5415   33.4383    2.7604 N.am      9 UNK        -0.4246 
     55 CA         33.2336   34.0969    4.0386 C.3       9 UNK         0.0261 
     56 CB         33.7047   35.5594    3.9781 C.3       9 UNK        -0.1959 
     57 C          33.8223   33.3919    5.2784 C.2       9 UNK         0.5033 
     58 O          33.3337   33.6141    6.3868 O.2       9 UNK        -0.5390 
     59 N          34.8493   32.5564    5.0719 N.am      10 UNK        -0.4215 
     60 CA         35.4680   31.7092    6.0905 C.3       10 UNK         0.0240 
     61 CB         36.8373   31.2347    5.5752 C.3       10 UNK        -0.1982 
     62 C          34.6058   30.5006    6.5045 C.2       10 UNK         0.4970 
     63 O          34.8572   29.9445    7.5748 O.2       10 UNK        -0.4916 
     64 N          33.6396   30.0912    5.6685 N.am      11 UNK        -0.4279 
     65 CA         32.7404   28.9617    5.9475 C.3       11 UNK         0.1003 
     66 C          31.7260   29.2775    7.0807 C.2       11 UNK         0.5709 
     67 N          31.3834   28.2909    7.8989 N.am      11 UNK        -0.7358 
     68 O          31.2265   30.3940    7.2072 O.2       11 UNK        -0.4999 
     69 C69        32.0019   28.4706    4.6764 C.3       12 UNK        -0.0954 
     70 S70        33.1154   27.9705    3.3231 S.3       12 UNK        -0.2268 
     71 C71        33.6253   26.3003    3.8395 C.3       12 UNK         0.0203 
     72 H72        31.2832   24.4358   -4.0312 H         1 UNK         0.0888 
     73 H73        30.3101   25.1430   -5.3229 H         1 UNK         0.0888 
     74 H74        31.6744   26.0403   -4.6512 H         1 UNK         0.0888 
     75 H75        30.2266   24.5056   -2.0505 H         1 UNK         0.3017 
     76 H76        29.0374   26.9577   -1.0726 H         1 UNK         0.0873 
     77 H77        28.7309   25.6802    1.0408 H         1 UNK         0.0745 
     78 H78        30.3605   25.6460    0.4788 H         1 UNK         0.0745 
     79 H79        31.1246   22.0104    0.9878 H         1 UNK         0.0705 
     80 H80        31.7266   23.4391    0.1815 H         1 UNK         0.0705 
     81 H81        32.8543   24.9992    1.5783 H         1 UNK         0.1334 
     82 H82        31.9398   25.3207    5.7527 H         1 UNK         0.1417 
     83 H83        29.7762   22.5519    3.2937 H         1 UNK         0.1562 
     84 H84        30.2810   23.9453    6.7660 H         1 UNK         0.0748 
     85 H85        29.9683   22.4151    5.9851 H         1 UNK         0.0748 
     86 H86        29.1848   26.1209    5.9284 H         1 UNK         0.0940 
     87 H87        27.4489   26.2339    5.9941 H         1 UNK         0.0940 
     88 H88        29.0517   25.6949    3.4435 H         1 UNK         0.0703 
     89 H89        27.1184   25.1400    2.5167 H         1 UNK         0.3081 
     90 H90        23.8347   25.4810    3.1227 H         1 UNK         0.0719 
     91 H91        23.7283   27.7899    2.2751 H         1 UNK         0.0809 
     92 H92        24.9404   27.4513    1.0507 H         1 UNK         0.0809 
     93 H93        23.3572   26.6797    0.9661 H         1 UNK         0.0809 
     94 H94        25.4849   25.0373    0.7180 H         1 UNK         0.2990 
     95 H95        26.4372   22.0477    1.2378 H         1 UNK         0.0690 
     96 H96        24.9266   20.5078   -0.0461 H         1 UNK         0.0788 
     97 H97        23.5483   21.5293    0.3628 H         1 UNK         0.0788 
     98 H98        24.4296   20.6888    1.6267 H         1 UNK         0.0788 
     99 H99        26.8184   23.0267   -0.6804 H         1 UNK         0.2993 
    100 H100       25.7755   23.4931   -3.3251 H         1 UNK         0.0949 
    101 H101       24.6166   26.1924   -2.4440 H         1 UNK         0.0767 
    102 H102       25.3036   25.8590   -4.0331 H         1 UNK         0.0767 
    103 H103       23.8507   25.0245   -3.5107 H         1 UNK         0.0767 
    104 H104       27.7750   24.3471   -2.8474 H         1 UNK         0.3013 
    105 H105       28.4607   27.4735    1.7359 H         1 UNK         0.3121 
    106 H106       29.5044   30.0042    2.8119 H         1 UNK         0.0774 
    107 H107       26.8697   29.8400    1.2462 H         1 UNK         0.0815 
    108 H108       27.0186   30.2653    2.9504 H         1 UNK         0.0815 
    109 H109       27.6958   31.3196    1.7224 H         1 UNK         0.0815 
    110 H110       30.9510   28.1137    1.4205 H         1 UNK         0.2987 
    111 H111       31.0899   28.8044   -1.4185 H         1 UNK         0.0949 
    112 H112       31.9101   26.5950   -0.7839 H         1 UNK         0.0806 
    113 H113       33.2881   27.5373   -1.2843 H         1 UNK         0.0806 
    114 H114       33.0020   27.2729    0.4260 H         1 UNK         0.0806 
    115 H115       32.4103   30.0693    1.5793 H         1 UNK         0.3010 
    116 H116       33.4308   32.4408    0.3107 H         1 UNK         0.0829 
    117 H117       35.3407   30.5650    1.8519 H         1 UNK         0.0813 
    118 H118       35.7351   32.1949    1.3153 H         1 UNK         0.0813 
    119 H119       35.4549   30.9310    0.1329 H         1 UNK         0.0813 
    120 H120       34.0821   33.9747    2.0961 H         1 UNK         0.3038 
    121 H121       32.1478   34.0920    4.1564 H         1 UNK         0.0769 
    122 H122       33.2210   36.1003    3.1645 H         1 UNK         0.0811 
    123 H123       34.7839   35.6309    3.8366 H         1 UNK         0.0811 
    124 H124       33.4623   36.0865    4.9022 H         1 UNK         0.0811 
    125 H125       35.1912   32.4551    4.1282 H         1 UNK         0.3204 
    126 H126       35.6304   32.3146    6.9849 H         1 UNK         0.0748 
    127 H127       36.7418   30.6270    4.6742 H         1 UNK         0.0771 
    128 H128       37.4899   32.0774    5.3460 H         1 UNK         0.0771 
    129 H129       37.3478   30.6277    6.3244 H         1 UNK         0.0771 
    130 H130       33.4384   30.6151    4.8247 H         1 UNK         0.2980 
    131 H131       33.3672   28.1396    6.2977 H         1 UNK         0.0545 
    132 H132       31.7914   27.3739    7.8156 H         1 UNK         0.3459 
    133 H133       30.7163   28.4766    8.6312 H         1 UNK         0.3459 
    134 H134       31.3522   29.2598    4.2958 H         1 UNK         0.0616 
    135 H135       31.3472   27.6324    4.9138 H         1 UNK         0.0616 
    136 H136       34.4816   26.0010    3.2335 H         1 UNK         0.0634 
    137 H137       33.9840   26.3273    4.8690 H         1 UNK         0.0634 
@<TRIPOS>BOND
     1    1    2 1    
     2    1   72 1    
     3    1   73 1    
     4    1   74 1    
     5    2    3 2    
     6    2    4 am   BACKBONE|DICT|INTERRES
     7    4    5 1    
     8    4   75 1    
     9    5    6 1    
    10    5   35 1    
    11    5   76 1    
    12    6    7 1    
    13    6   77 1    
    14    6   78 1    
    15    7    8 1    
    16    8    9 1    
    17    8   79 1    
    18    8   80 1    
    19    9   10 ar   
    20    9   14 ar   
    21   10   11 ar   
    22   10   81 1    
    23   11   12 ar   
    24   11   71 1    
    25   12   13 ar   
    26   12   82 1    
    27   13   14 ar   
    28   13   15 1    
    29   14   83 1    
    30   15   16 1    
    31   15   84 1    
    32   15   85 1    
    33   16   17 1    
    34   17   18 1    
    35   17   86 1    
    36   17   87 1    
    37   18   19 1    
    38   18   37 1    
    39   18   88 1    
    40   19   20 am   BACKBONE|DICT|INTERRES
    41   19   89 1    
    42   20   21 2    
    43   20   22 1    
    44   22   23 1    
    45   22   24 1    
    46   22   90 1    
    47   23   91 1    
    48   23   92 1    
    49   23   93 1    
    50   24   25 am   BACKBONE|DICT|INTERRES
    51   24   94 1    
    52   25   26 2    
    53   25   27 1    
    54   27   28 1    
    55   27   29 1    
    56   27   95 1    
    57   28   96 1    
    58   28   97 1    
    59   28   98 1    
    60   29   30 am   BACKBONE|DICT|INTERRES
    61   29   99 1    
    62   30   31 2    
    63   30   32 1    
    64   32   33 1    
    65   32   34 1    
    66   32  100 1    
    67   33  101 1    
    68   33  102 1    
    69   33  103 1    
    70   34   35 am   BACKBONE|DICT|INTERRES
    71   34  104 1    
    72   35   36 2    
    73   37   38 2    
    74   37   39 am   BACKBONE|DICT|INTERRES
    75   39   40 1    
    76   39  105 1    
    77   40   41 1    
    78   40   42 1    
    79   40  106 1    
    80   41  107 1    
    81   41  108 1    
    82   41  109 1    
    83   42   43 2    
    84   42   44 am   BACKBONE|DICT|INTERRES
    85   44   45 1    
    86   44  110 1    
    87   45   46 1    
    88   45   47 1    
    89   45  111 1    
    90   46  112 1    
    91   46  113 1    
    92   46  114 1    
    93   47   48 2    
    94   47   49 am   BACKBONE|DICT|INTERRES
    95   49   50 1    
    96   49  115 1    
    97   50   51 1    
    98   50   52 1    
    99   50  116 1    
   100   51  117 1    
   101   51  118 1    
   102   51  119 1    
   103   52   53 2    
   104   52   54 am   BACKBONE|DICT|INTERRES
   105   54   55 1    
   106   54  120 1    
   107   55   56 1    
   108   55   57 1    
   109   55  121 1    
   110   56  122 1    
   111   56  123 1    
   112   56  124 1    
   113   57   58 2    
   114   57   59 am   BACKBONE|DICT|INTERRES
   115   59   60 1    
   116   59  125 1    
   117   60   61 1    
   118   60   62 1    
   119   60  126 1    
   120   61  127 1    
   121   61  128 1    
   122   61  129 1    
   123   62   63 2    
   124   62   64 am   BACKBONE|DICT|INTERRES
   125   64   65 1    
   126   64  130 1    
   127   65   66 1    
   128   65   69 1    
   129   65  131 1    
   130   66   67 am   BACKBONE|DICT|INTERRES
   131   66   68 2    
   132   67  132 1    
   133   67  133 1    
   134   69   70 1    
   135   69  134 1    
   136   69  135 1    
   137   70   71 1    
   138   71  136 1    
   139   71  137 1    
@<TRIPOS>SUBSTRUCTURE
     1 UNK         1 GROUP             0       ****    0 ROOT    
