@<TRIPOS>MOLECULE
3R136
137   139    1
SMALL
USER_CHARGES


@<TRIPOS>ATOM
      1 CA         29.8086   24.9495   -4.1457 C.3       0 UNK        -0.1979 
      2 C          29.6990   25.2232   -2.6544 C.2       0 UNK         0.4864 
      3 O          28.7988   25.9535   -2.2304 O.2       0 UNK        -0.5359 
      4 N          30.5941   24.6304   -1.8473 N.am      1 UNK        -0.4318 
      5 CA         30.6610   24.8124   -0.3905 C.3       1 UNK         0.0824 
      6 C6         31.9117   24.1749    0.2606 C.3       12 UNK        -0.0944 
      7 S7         32.1413   22.3843   -0.0447 S.3       12 UNK        -0.2672 
      8 C8         31.1898   21.5452    1.2777 C.3       12 UNK         0.0333 
      9 C9         31.3168   22.1843    2.6570 C.ar      12 UNK        -0.0807 
     10 C10        32.5708   22.3623    3.2500 C.ar      12 UNK        -0.0894 
     11 C11        32.6917   22.9799    4.4995 C.ar      12 UNK        -0.0804 
     12 C12        31.5310   23.3784    5.1758 C.ar      12 UNK        -0.0824 
     13 C13        30.2728   23.2218    4.5886 C.ar      12 UNK        -0.0762 
     14 C14        30.1717   22.6117    3.3366 C.ar      12 UNK        -0.0782 
     15 C15        29.0294   23.7578    5.2886 C.3       12 UNK         0.0230 
     16 S16        28.3758   25.2664    4.4917 S.3       12 UNK        -0.2608 
     17 C17        29.8714   26.3165    4.4032 C.3       12 UNK        -0.0989 
     18 CA         29.6697   27.7329    3.8095 C.3       5 UNK         0.0716 
     19 N          29.3345   27.7147    2.3797 N.am      5 UNK        -0.4135 
     20 C          29.5824   28.7451    1.5589 C.2       4 UNK         0.5031 
     21 O          30.3108   29.6839    1.8802 O.2       4 UNK        -0.5229 
     22 CA         28.9165   28.7916    0.1694 C.3       4 UNK         0.0329 
     23 CB         29.9521   28.8781   -0.9622 C.3       4 UNK        -0.2001 
     24 N          27.9515   27.7313   -0.1340 N.am      4 UNK        -0.4303 
     25 C          26.7476   27.6028    0.4424 C.2       3 UNK         0.5044 
     26 O          26.3988   28.2445    1.4336 O.2       3 UNK        -0.5152 
     27 CA         25.7731   26.6029   -0.1947 C.3       3 UNK         0.0319 
     28 CB         25.2756   27.1212   -1.5541 C.3       3 UNK        -0.2001 
     29 N          26.4266   25.3098   -0.3718 N.am      3 UNK        -0.4354 
     30 C          26.2607   24.2604    0.4456 C.2       2 UNK         0.4964 
     31 O          25.3886   24.1915    1.3122 O.2       2 UNK        -0.5047 
     32 CA         27.2596   23.0951    0.2980 C.3       2 UNK         0.0288 
     33 CB         26.6852   22.0006   -0.6153 C.3       2 UNK        -0.2113 
     34 N          28.5793   23.4963   -0.2033 N.am      2 UNK        -0.4145 
     35 C          29.3708   24.4272    0.3537 C.2       1 UNK         0.5006 
     36 O          29.0893   25.0312    1.3841 O.2       1 UNK        -0.5103 
     37 C          28.6768   28.5837    4.6344 C.2       5 UNK         0.5055 
     38 O          29.0480   29.0441    5.7150 O.2       5 UNK        -0.5220 
     39 N          27.4500   28.7749    4.1245 N.am      6 UNK        -0.4450 
     40 CA         26.3866   29.5560    4.7589 C.3       6 UNK         0.0367 
     41 CB         25.1216   28.6889    4.8685 C.3       6 UNK        -0.1929 
     42 C          26.0887   30.8393    3.9705 C.2       6 UNK         0.5070 
     43 O          25.8826   31.8881    4.5808 O.2       6 UNK        -0.5237 
     44 N          26.0716   30.7445    2.6332 N.am      7 UNK        -0.4739 
     45 CA         25.8146   31.8617    1.7172 C.3       7 UNK         0.0276 
     46 CB         25.3721   31.2986    0.3558 C.3       7 UNK        -0.1927 
     47 C          27.0194   32.8053    1.5442 C.2       7 UNK         0.5013 
     48 O          26.8465   33.9131    1.0343 O.2       7 UNK        -0.5193 
     49 N          28.2071   32.3557    1.9597 N.am      8 UNK        -0.4253 
     50 CA         29.4612   33.0998    1.9518 C.3       8 UNK         0.0242 
     51 CB         30.1467   32.9679    0.5734 C.3       8 UNK        -0.2000 
     52 C          30.3004   32.6023    3.1395 C.2       8 UNK         0.4948 
     53 O          29.7455   32.4033    4.2223 O.2       8 UNK        -0.5275 
     54 N          31.6036   32.3922    2.9273 N.am      9 UNK        -0.4246 
     55 CA         32.5242   31.8125    3.9021 C.3       9 UNK         0.0261 
     56 CB         33.1118   32.9206    4.7998 C.3       9 UNK        -0.1959 
     57 C          33.5928   30.9905    3.1676 C.2       9 UNK         0.5033 
     58 O          34.7871   31.2308    3.3530 O.2       9 UNK        -0.5390 
     59 N          33.1499   30.0530    2.3153 N.am      10 UNK        -0.4215 
     60 CA         34.0334   29.1695    1.5408 C.3       10 UNK         0.0240 
     61 CB         33.2236   28.4377    0.4597 C.3       10 UNK        -0.1982 
     62 C          34.8041   28.1552    2.4046 C.2       10 UNK         0.4970 
     63 O          35.9381   27.8132    2.0678 O.2       10 UNK        -0.4916 
     64 N          34.1735   27.6921    3.4893 N.am      11 UNK        -0.4279 
     65 CA         34.7681   26.8009    4.4898 C.3       11 UNK         0.1003 
     66 C          35.6937   27.5959    5.4496 C.2       11 UNK         0.5709 
     67 N          36.9230   27.1431    5.6554 N.am      11 UNK        -0.7358 
     68 O          35.2916   28.6033    6.0288 O.2       11 UNK        -0.4999 
     69 C69        33.6493   26.0375    5.2390 C.3       12 UNK        -0.0954 
     70 S70        34.2492   24.6244    6.2294 S.3       12 UNK        -0.2268 
     71 C71        34.0909   23.2157    5.0719 C.3       12 UNK         0.0203 
     72 H72        29.9630   25.8833   -4.6856 H         1 UNK         0.0888 
     73 H73        30.6373   24.2811   -4.3781 H         1 UNK         0.0888 
     74 H74        28.8894   24.4926   -4.5109 H         1 UNK         0.0888 
     75 H75        31.2996   24.0236   -2.2418 H         1 UNK         0.3017 
     76 H76        30.7598   25.8867   -0.2334 H         1 UNK         0.0873 
     77 H77        32.7980   24.6724   -0.1361 H         1 UNK         0.0745 
     78 H78        31.9379   24.3879    1.3303 H         1 UNK         0.0745 
     79 H79        30.1440   21.4939    0.9736 H         1 UNK         0.0705 
     80 H80        31.5295   20.5108    1.3417 H         1 UNK         0.0705 
     81 H81        33.4577   22.0435    2.7191 H         1 UNK         0.1334 
     82 H82        31.6037   23.8524    6.1443 H         1 UNK         0.1417 
     83 H83        29.1974   22.5026    2.8818 H         1 UNK         0.1562 
     84 H84        29.2413   23.9762    6.3364 H         1 UNK         0.0748 
     85 H85        28.2527   22.9919    5.2875 H         1 UNK         0.0748 
     86 H86        30.6145   25.7954    3.7983 H         1 UNK         0.0940 
     87 H87        30.2990   26.3892    5.4050 H         1 UNK         0.0940 
     88 H88        30.6357   28.2328    3.9096 H         1 UNK         0.0703 
     89 H89        28.8384   26.8952    2.0404 H         1 UNK         0.3081 
     90 H90        28.3602   29.7306    0.1529 H         1 UNK         0.0719 
     91 H91        30.5980   29.7467   -0.8342 H         1 UNK         0.0809 
     92 H92        29.4680   28.9853   -1.9331 H         1 UNK         0.0809 
     93 H93        30.5889   27.9968   -1.0063 H         1 UNK         0.0809 
     94 H94        28.1795   27.1384   -0.9293 H         1 UNK         0.2990 
     95 H95        24.9092   26.5115    0.4670 H         1 UNK         0.0690 
     96 H96        24.5302   26.4502   -1.9811 H         1 UNK         0.0788 
     97 H97        26.0870   27.2198   -2.2768 H         1 UNK         0.0788 
     98 H98        24.8078   28.1014   -1.4506 H         1 UNK         0.0788 
     99 H99        27.1815   25.2777   -1.0479 H         1 UNK         0.2993 
    100 H100       27.4031   22.6726    1.2940 H         1 UNK         0.0949 
    101 H101       25.7122   21.6629   -0.2553 H         1 UNK         0.0767 
    102 H102       26.5489   22.3582   -1.6368 H         1 UNK         0.0767 
    103 H103       27.3370   21.1272   -0.6476 H         1 UNK         0.0767 
    104 H104       28.8912   23.0639   -1.0605 H         1 UNK         0.3013 
    105 H105       27.2273   28.3685    3.2210 H         1 UNK         0.3121 
    106 H106       26.6803   29.8520    5.7683 H         1 UNK         0.0774 
    107 H107       24.3072   29.2432    5.3369 H         1 UNK         0.0815 
    108 H108       24.7715   28.3559    3.8903 H         1 UNK         0.0815 
    109 H109       25.3032   27.8026    5.4767 H         1 UNK         0.0815 
    110 H110       26.1997   29.8296    2.2029 H         1 UNK         0.2987 
    111 H111       24.9936   32.4575    2.1222 H         1 UNK         0.0949 
    112 H112       24.4955   30.6583    0.4565 H         1 UNK         0.0806 
    113 H113       25.1075   32.1031   -0.3318 H         1 UNK         0.0806 
    114 H114       26.1608   30.7137   -0.1174 H         1 UNK         0.0806 
    115 H115       28.2423   31.4645    2.4357 H         1 UNK         0.3010 
    116 H116       29.2512   34.1548    2.1396 H         1 UNK         0.0829 
    117 H117       29.4847   33.2992   -0.2268 H         1 UNK         0.0813 
    118 H118       31.0437   33.5850    0.5124 H         1 UNK         0.0813 
    119 H119       30.4298   31.9374    0.3574 H         1 UNK         0.0813 
    120 H120       31.9790   32.5532    2.0027 H         1 UNK         0.3038 
    121 H121       31.9824   31.1079    4.5376 H         1 UNK         0.0769 
    122 H122       33.6652   33.6581    4.2176 H         1 UNK         0.0811 
    123 H123       33.7971   32.5031    5.5387 H         1 UNK         0.0811 
    124 H124       32.3283   33.4447    5.3471 H         1 UNK         0.0811 
    125 H125       32.1444   29.9416    2.1854 H         1 UNK         0.3204 
    126 H126       34.7747   29.7952    1.0388 H         1 UNK         0.0748 
    127 H127       33.8592   27.7662   -0.1195 H         1 UNK         0.0771 
    128 H128       32.4220   27.8367    0.8898 H         1 UNK         0.0771 
    129 H129       32.7852   29.1456   -0.2420 H         1 UNK         0.0771 
    130 H130       33.2657   28.0680    3.7117 H         1 UNK         0.2980 
    131 H131       35.3696   26.0621    3.9558 H         1 UNK         0.0545 
    132 H132       37.2546   26.3101    5.1948 H         1 UNK         0.3459 
    133 H133       37.5302   27.6430    6.2856 H         1 UNK         0.3459 
    134 H134       33.0969   26.7092    5.8987 H         1 UNK         0.0616 
    135 H135       32.9206   25.6716    4.5169 H         1 UNK         0.0616 
    136 H136       34.7992   23.3748    4.2572 H         1 UNK         0.0634 
    137 H137       34.4106   22.3093    5.5870 H         1 UNK         0.0634 
@<TRIPOS>BOND
     1    1    2 1    
     2    1   72 1    
     3    1   73 1    
     4    1   74 1    
     5    2    3 2    
     6    2    4 am   BACKBONE|DICT|INTERRES
     7    4    5 1    
     8    4   75 1    
     9    5    6 1    
    10    5   35 1    
    11    5   76 1    
    12    6    7 1    
    13    6   77 1    
    14    6   78 1    
    15    7    8 1    
    16    8    9 1    
    17    8   79 1    
    18    8   80 1    
    19    9   10 ar   
    20    9   14 ar   
    21   10   11 ar   
    22   10   81 1    
    23   11   12 ar   
    24   11   71 1    
    25   12   13 ar   
    26   12   82 1    
    27   13   14 ar   
    28   13   15 1    
    29   14   83 1    
    30   15   16 1    
    31   15   84 1    
    32   15   85 1    
    33   16   17 1    
    34   17   18 1    
    35   17   86 1    
    36   17   87 1    
    37   18   19 1    
    38   18   37 1    
    39   18   88 1    
    40   19   20 am   BACKBONE|DICT|INTERRES
    41   19   89 1    
    42   20   21 2    
    43   20   22 1    
    44   22   23 1    
    45   22   24 1    
    46   22   90 1    
    47   23   91 1    
    48   23   92 1    
    49   23   93 1    
    50   24   25 am   BACKBONE|DICT|INTERRES
    51   24   94 1    
    52   25   26 2    
    53   25   27 1    
    54   27   28 1    
    55   27   29 1    
    56   27   95 1    
    57   28   96 1    
    58   28   97 1    
    59   28   98 1    
    60   29   30 am   BACKBONE|DICT|INTERRES
    61   29   99 1    
    62   30   31 2    
    63   30   32 1    
    64   32   33 1    
    65   32   34 1    
    66   32  100 1    
    67   33  101 1    
    68   33  102 1    
    69   33  103 1    
    70   34   35 am   BACKBONE|DICT|INTERRES
    71   34  104 1    
    72   35   36 2    
    73   37   38 2    
    74   37   39 am   BACKBONE|DICT|INTERRES
    75   39   40 1    
    76   39  105 1    
    77   40   41 1    
    78   40   42 1    
    79   40  106 1    
    80   41  107 1    
    81   41  108 1    
    82   41  109 1    
    83   42   43 2    
    84   42   44 am   BACKBONE|DICT|INTERRES
    85   44   45 1    
    86   44  110 1    
    87   45   46 1    
    88   45   47 1    
    89   45  111 1    
    90   46  112 1    
    91   46  113 1    
    92   46  114 1    
    93   47   48 2    
    94   47   49 am   BACKBONE|DICT|INTERRES
    95   49   50 1    
    96   49  115 1    
    97   50   51 1    
    98   50   52 1    
    99   50  116 1    
   100   51  117 1    
   101   51  118 1    
   102   51  119 1    
   103   52   53 2    
   104   52   54 am   BACKBONE|DICT|INTERRES
   105   54   55 1    
   106   54  120 1    
   107   55   56 1    
   108   55   57 1    
   109   55  121 1    
   110   56  122 1    
   111   56  123 1    
   112   56  124 1    
   113   57   58 2    
   114   57   59 am   BACKBONE|DICT|INTERRES
   115   59   60 1    
   116   59  125 1    
   117   60   61 1    
   118   60   62 1    
   119   60  126 1    
   120   61  127 1    
   121   61  128 1    
   122   61  129 1    
   123   62   63 2    
   124   62   64 am   BACKBONE|DICT|INTERRES
   125   64   65 1    
   126   64  130 1    
   127   65   66 1    
   128   65   69 1    
   129   65  131 1    
   130   66   67 am   BACKBONE|DICT|INTERRES
   131   66   68 2    
   132   67  132 1    
   133   67  133 1    
   134   69   70 1    
   135   69  134 1    
   136   69  135 1    
   137   70   71 1    
   138   71  136 1    
   139   71  137 1    
@<TRIPOS>SUBSTRUCTURE
     1 UNK         1 GROUP             0       ****    0 ROOT    
