@<TRIPOS>MOLECULE
3R136
137   139    1
SMALL
USER_CHARGES


@<TRIPOS>ATOM
      1 CA         26.9012   19.8452    2.7991 C.3       0 UNK        -0.1979 
      2 C          27.1759   21.0918    1.9733 C.2       0 UNK         0.4864 
      3 O          26.4269   22.0655    2.0661 O.2       0 UNK        -0.5359 
      4 N          28.2555   21.0858    1.1783 N.am      1 UNK        -0.4318 
      5 CA         28.6601   22.1915    0.2987 C.3       1 UNK         0.0824 
      6 C6         29.8407   21.7997   -0.6223 C.3       12 UNK        -0.0944 
      7 S7         31.3769   21.3632    0.2694 S.3       12 UNK        -0.2672 
      8 C8         32.6363   22.2875   -0.6675 C.3       12 UNK         0.0333 
      9 C9         32.5733   23.7885   -0.4155 C.ar      12 UNK        -0.0807 
     10 C10        33.2003   24.3418    0.7051 C.ar      12 UNK        -0.0894 
     11 C11        33.1924   25.7251    0.9136 C.ar      12 UNK        -0.0804 
     12 C12        32.5276   26.5553    0.0060 C.ar      12 UNK        -0.0824 
     13 C13        31.8954   26.0134   -1.1168 C.ar      12 UNK        -0.0762 
     14 C14        31.9301   24.6320   -1.3263 C.ar      12 UNK        -0.0782 
     15 C15        31.2059   26.9160   -2.1293 C.3       12 UNK         0.0230 
     16 S16        29.3953   26.7497   -2.0622 S.3       12 UNK        -0.2608 
     17 C17        29.0130   27.7157   -0.5661 C.3       12 UNK        -0.0989 
     18 CA         27.4899   27.9601   -0.4295 C.3       5 UNK         0.0716 
     19 N          26.7734   26.7271   -0.0947 N.am      5 UNK        -0.4135 
     20 C          25.4499   26.5552   -0.2068 C.2       4 UNK         0.5031 
     21 O          24.6865   27.3917   -0.6932 O.2       4 UNK        -0.5229 
     22 CA         24.8756   25.2249    0.3109 C.3       4 UNK         0.0329 
     23 CB         25.1083   24.0974   -0.7074 C.3       4 UNK        -0.2001 
     24 N          25.4290   24.8393    1.6111 N.am      4 UNK        -0.4303 
     25 C          25.1823   25.4781    2.7652 C.2       3 UNK         0.5044 
     26 O          24.4019   26.4248    2.8713 O.2       3 UNK        -0.5152 
     27 CA         25.9143   24.9716    4.0187 C.3       3 UNK         0.0319 
     28 CB         25.0964   23.8745    4.7200 C.3       3 UNK        -0.2001 
     29 N          27.2449   24.4564    3.6923 N.am      3 UNK        -0.4354 
     30 C          28.3626   25.1986    3.6881 C.2       2 UNK         0.4964 
     31 O          28.4059   26.3703    4.0599 O.2       2 UNK        -0.5047 
     32 CA         29.6616   24.5264    3.2041 C.3       2 UNK         0.0288 
     33 CB         30.4742   24.0177    4.4060 C.3       2 UNK        -0.2113 
     34 N          29.4520   23.4156    2.2754 N.am      2 UNK        -0.4145 
     35 C          28.9063   23.5161    1.0549 C.2       1 UNK         0.5006 
     36 O          28.5251   24.5765    0.5614 O.2       1 UNK        -0.5103 
     37 C          27.2041   29.0684    0.6039 C.2       5 UNK         0.5055 
     38 O          26.9116   28.7768    1.7652 O.2       5 UNK        -0.5220 
     39 N          27.3187   30.3231    0.1504 N.am      6 UNK        -0.4450 
     40 CA         27.1866   31.5343    0.9681 C.3       6 UNK         0.0367 
     41 CB         26.0649   32.4085    0.3782 C.3       6 UNK        -0.1929 
     42 C          28.5099   32.3198    1.0584 C.2       6 UNK         0.5070 
     43 O          28.5226   33.4113    1.6294 O.2       6 UNK        -0.5237 
     44 N          29.5913   31.7741    0.4899 N.am      7 UNK        -0.4739 
     45 CA         30.9439   32.3202    0.5135 C.3       7 UNK         0.0276 
     46 CB         31.2643   32.9243   -0.8649 C.3       7 UNK        -0.1927 
     47 C          31.8947   31.1541    0.8326 C.2       7 UNK         0.5013 
     48 O          31.7276   30.0937    0.2290 O.2       7 UNK        -0.5193 
     49 N          32.8795   31.2963    1.7277 N.am      8 UNK        -0.4253 
     50 CA         33.1839   32.4187    2.6127 C.3       8 UNK         0.0242 
     51 CB         34.0677   33.4441    1.8780 C.3       8 UNK        -0.2000 
     52 C          33.8753   31.8658    3.8661 C.2       8 UNK         0.4948 
     53 O          34.1859   30.6707    3.9171 O.2       8 UNK        -0.5275 
     54 N          34.0766   32.7394    4.8642 N.am      9 UNK        -0.4246 
     55 CA         34.6030   32.4362    6.2007 C.3       9 UNK         0.0261 
     56 CB         36.0952   32.0341    6.1314 C.3       9 UNK        -0.1959 
     57 C          33.6955   31.4142    6.9100 C.2       9 UNK         0.5033 
     58 O          32.5304   31.7301    7.1598 O.2       9 UNK        -0.5390 
     59 N          34.2054   30.2015    7.1645 N.am      10 UNK        -0.4215 
     60 CA         33.4491   29.0690    7.7106 C.3       10 UNK         0.0240 
     61 CB         34.4122   27.9010    7.9793 C.3       10 UNK        -0.1982 
     62 C          32.2808   28.6064    6.8166 C.2       10 UNK         0.4970 
     63 O          31.3140   28.0536    7.3420 O.2       10 UNK        -0.4916 
     64 N          32.3830   28.8525    5.5045 N.am      11 UNK        -0.4279 
     65 CA         31.3374   28.5847    4.5060 C.3       11 UNK         0.1003 
     66 C          30.4704   29.8406    4.1906 C.2       11 UNK         0.5709 
     67 N          30.5853   30.9430    4.9259 N.am      11 UNK        -0.7358 
     68 O          29.6719   29.8243    3.2603 O.2       11 UNK        -0.4999 
     69 C69        31.9293   27.9445    3.2213 C.3       12 UNK        -0.0954 
     70 S70        32.8952   26.4373    3.5739 S.3       12 UNK        -0.2268 
     71 C71        33.9416   26.3224    2.0953 C.3       12 UNK         0.0203 
     72 H72        26.8965   20.0926    3.8602 H         1 UNK         0.0888 
     73 H73        25.9258   19.4342    2.5406 H         1 UNK         0.0888 
     74 H74        27.6511   19.0722    2.6327 H         1 UNK         0.0888 
     75 H75        28.8503   20.2693    1.1500 H         1 UNK         0.3017 
     76 H76        27.8057   22.3762   -0.3546 H         1 UNK         0.0873 
     77 H77        30.0309   22.6005   -1.3362 H         1 UNK         0.0745 
     78 H78        29.5567   20.9394   -1.2304 H         1 UNK         0.0745 
     79 H79        33.6220   21.9157   -0.3840 H         1 UNK         0.0705 
     80 H80        32.5287   22.0700   -1.7314 H         1 UNK         0.0705 
     81 H81        33.7118   23.6960    1.4060 H         1 UNK         0.1334 
     82 H82        32.5181   27.6246    0.1654 H         1 UNK         0.1417 
     83 H83        31.4566   24.2188   -2.2062 H         1 UNK         0.1562 
     84 H84        31.5448   26.6510   -3.1317 H         1 UNK         0.0748 
     85 H85        31.4867   27.9601   -1.9802 H         1 UNK         0.0748 
     86 H86        29.5577   28.6587   -0.6360 H         1 UNK         0.0940 
     87 H87        29.4090   27.1998    0.3116 H         1 UNK         0.0940 
     88 H88        27.1093   28.3093   -1.3922 H         1 UNK         0.0703 
     89 H89        27.3424   25.9703    0.2787 H         1 UNK         0.3081 
     90 H90        23.7977   25.3508    0.4336 H         1 UNK         0.0719 
     91 H91        24.6111   24.3208   -1.6522 H         1 UNK         0.0809 
     92 H92        26.1676   23.9622   -0.9245 H         1 UNK         0.0809 
     93 H93        24.7135   23.1466   -0.3482 H         1 UNK         0.0809 
     94 H94        26.0202   24.0155    1.6341 H         1 UNK         0.2990 
     95 H95        26.0071   25.8112    4.7112 H         1 UNK         0.0690 
     96 H96        25.5908   23.5322    5.6292 H         1 UNK         0.0788 
     97 H97        24.9394   23.0080    4.0768 H         1 UNK         0.0788 
     98 H98        24.1126   24.2480    5.0070 H         1 UNK         0.0788 
     99 H99        27.2816   23.5079    3.3379 H         1 UNK         0.2993 
    100 H100       30.2453   25.2857    2.6794 H         1 UNK         0.0949 
    101 H101       29.9472   23.2318    4.9483 H         1 UNK         0.0767 
    102 H102       31.4405   23.6229    4.0911 H         1 UNK         0.0767 
    103 H103       30.6719   24.8259    5.1120 H         1 UNK         0.0767 
    104 H104       29.7358   22.4991    2.5895 H         1 UNK         0.3013 
    105 H105       27.5431   30.4715   -0.8242 H         1 UNK         0.3121 
    106 H106       26.9129   31.2743    1.9929 H         1 UNK         0.0774 
    107 H107       26.3023   32.7429   -0.6323 H         1 UNK         0.0815 
    108 H108       25.1201   31.8660    0.3395 H         1 UNK         0.0815 
    109 H109       25.8990   33.2988    0.9863 H         1 UNK         0.0815 
    110 H110       29.5320   30.8287    0.1382 H         1 UNK         0.2987 
    111 H111       31.0121   33.1078    1.2613 H         1 UNK         0.0949 
    112 H112       30.5875   33.7450   -1.1029 H         1 UNK         0.0806 
    113 H113       32.2792   33.3206   -0.8965 H         1 UNK         0.0806 
    114 H114       31.1816   32.1821   -1.6601 H         1 UNK         0.0806 
    115 H115       33.4535   30.4892    1.9370 H         1 UNK         0.3010 
    116 H116       32.2646   32.8889    2.9629 H         1 UNK         0.0829 
    117 H117       34.9959   32.9920    1.5259 H         1 UNK         0.0813 
    118 H118       34.3381   34.2774    2.5275 H         1 UNK         0.0813 
    119 H119       33.5578   33.8708    1.0157 H         1 UNK         0.0813 
    120 H120       33.7562   33.6894    4.7362 H         1 UNK         0.3038 
    121 H121       34.5364   33.3572    6.7819 H         1 UNK         0.0769 
    122 H122       36.5029   31.8581    7.1278 H         1 UNK         0.0811 
    123 H123       36.6892   32.8310    5.6838 H         1 UNK         0.0811 
    124 H124       36.2621   31.1344    5.5382 H         1 UNK         0.0811 
    125 H125       35.1623   30.0231    6.8957 H         1 UNK         0.3204 
    126 H126       33.0215   29.3878    8.6636 H         1 UNK         0.0748 
    127 H127       34.8862   27.5499    7.0616 H         1 UNK         0.0771 
    128 H128       35.1988   28.1858    8.6785 H         1 UNK         0.0771 
    129 H129       33.8838   27.0528    8.4172 H         1 UNK         0.0771 
    130 H130       33.1981   29.3415    5.1509 H         1 UNK         0.2980 
    131 H131       30.6363   27.8578    4.9191 H         1 UNK         0.0545 
    132 H132       31.2230   30.9919    5.7111 H         1 UNK         0.3459 
    133 H133       29.9978   31.7314    4.7096 H         1 UNK         0.3459 
    134 H134       32.5705   28.6599    2.7072 H         1 UNK         0.0616 
    135 H135       31.1348   27.6804    2.5208 H         1 UNK         0.0616 
    136 H136       34.8065   25.7012    2.3324 H         1 UNK         0.0634 
    137 H137       34.3391   27.3065    1.8423 H         1 UNK         0.0634 
@<TRIPOS>BOND
     1    1    2 1    
     2    1   72 1    
     3    1   73 1    
     4    1   74 1    
     5    2    3 2    
     6    2    4 am   BACKBONE|DICT|INTERRES
     7    4    5 1    
     8    4   75 1    
     9    5    6 1    
    10    5   35 1    
    11    5   76 1    
    12    6    7 1    
    13    6   77 1    
    14    6   78 1    
    15    7    8 1    
    16    8    9 1    
    17    8   79 1    
    18    8   80 1    
    19    9   10 ar   
    20    9   14 ar   
    21   10   11 ar   
    22   10   81 1    
    23   11   12 ar   
    24   11   71 1    
    25   12   13 ar   
    26   12   82 1    
    27   13   14 ar   
    28   13   15 1    
    29   14   83 1    
    30   15   16 1    
    31   15   84 1    
    32   15   85 1    
    33   16   17 1    
    34   17   18 1    
    35   17   86 1    
    36   17   87 1    
    37   18   19 1    
    38   18   37 1    
    39   18   88 1    
    40   19   20 am   BACKBONE|DICT|INTERRES
    41   19   89 1    
    42   20   21 2    
    43   20   22 1    
    44   22   23 1    
    45   22   24 1    
    46   22   90 1    
    47   23   91 1    
    48   23   92 1    
    49   23   93 1    
    50   24   25 am   BACKBONE|DICT|INTERRES
    51   24   94 1    
    52   25   26 2    
    53   25   27 1    
    54   27   28 1    
    55   27   29 1    
    56   27   95 1    
    57   28   96 1    
    58   28   97 1    
    59   28   98 1    
    60   29   30 am   BACKBONE|DICT|INTERRES
    61   29   99 1    
    62   30   31 2    
    63   30   32 1    
    64   32   33 1    
    65   32   34 1    
    66   32  100 1    
    67   33  101 1    
    68   33  102 1    
    69   33  103 1    
    70   34   35 am   BACKBONE|DICT|INTERRES
    71   34  104 1    
    72   35   36 2    
    73   37   38 2    
    74   37   39 am   BACKBONE|DICT|INTERRES
    75   39   40 1    
    76   39  105 1    
    77   40   41 1    
    78   40   42 1    
    79   40  106 1    
    80   41  107 1    
    81   41  108 1    
    82   41  109 1    
    83   42   43 2    
    84   42   44 am   BACKBONE|DICT|INTERRES
    85   44   45 1    
    86   44  110 1    
    87   45   46 1    
    88   45   47 1    
    89   45  111 1    
    90   46  112 1    
    91   46  113 1    
    92   46  114 1    
    93   47   48 2    
    94   47   49 am   BACKBONE|DICT|INTERRES
    95   49   50 1    
    96   49  115 1    
    97   50   51 1    
    98   50   52 1    
    99   50  116 1    
   100   51  117 1    
   101   51  118 1    
   102   51  119 1    
   103   52   53 2    
   104   52   54 am   BACKBONE|DICT|INTERRES
   105   54   55 1    
   106   54  120 1    
   107   55   56 1    
   108   55   57 1    
   109   55  121 1    
   110   56  122 1    
   111   56  123 1    
   112   56  124 1    
   113   57   58 2    
   114   57   59 am   BACKBONE|DICT|INTERRES
   115   59   60 1    
   116   59  125 1    
   117   60   61 1    
   118   60   62 1    
   119   60  126 1    
   120   61  127 1    
   121   61  128 1    
   122   61  129 1    
   123   62   63 2    
   124   62   64 am   BACKBONE|DICT|INTERRES
   125   64   65 1    
   126   64  130 1    
   127   65   66 1    
   128   65   69 1    
   129   65  131 1    
   130   66   67 am   BACKBONE|DICT|INTERRES
   131   66   68 2    
   132   67  132 1    
   133   67  133 1    
   134   69   70 1    
   135   69  134 1    
   136   69  135 1    
   137   70   71 1    
   138   71  136 1    
   139   71  137 1    
@<TRIPOS>SUBSTRUCTURE
     1 UNK         1 GROUP             0       ****    0 ROOT    
