@<TRIPOS>MOLECULE
3R136
137   139    1
SMALL
USER_CHARGES


@<TRIPOS>ATOM
      1 CA         31.5096   26.1692    5.0166 C.3       0 UNK        -0.1979 
      2 C          30.1834   25.4341    4.9535 C.2       0 UNK         0.4864 
      3 O          30.0407   24.3832    5.5802 O.2       0 UNK        -0.5359 
      4 N          29.2300   25.9596    4.1770 N.am      1 UNK        -0.4318 
      5 CA         27.9804   25.2732    3.8411 C.3       1 UNK         0.0824 
      6 C6         28.1325   24.2818    2.6524 C.3       12 UNK        -0.0944 
      7 S7         29.0378   24.9766    1.2204 S.3       12 UNK        -0.2672 
      8 C8         30.6342   24.1078    1.3909 C.3       12 UNK         0.0333 
      9 C9         31.7798   24.8594    0.7268 C.ar      12 UNK        -0.0807 
     10 C10        32.8879   25.2702    1.4761 C.ar      12 UNK        -0.0894 
     11 C11        33.9569   25.9301    0.8621 C.ar      12 UNK        -0.0804 
     12 C12        33.8919   26.2098   -0.5070 C.ar      12 UNK        -0.0824 
     13 C13        32.7874   25.8153   -1.2715 C.ar      12 UNK        -0.0762 
     14 C14        31.7484   25.1130   -0.6463 C.ar      12 UNK        -0.0782 
     15 C15        32.7701   26.1533   -2.7657 C.3       12 UNK         0.0230 
     16 S16        31.1342   26.0965   -3.5861 S.3       12 UNK        -0.2608 
     17 C17        30.2119   27.3614   -2.6488 C.3       12 UNK        -0.0989 
     18 CA         28.6699   27.1783   -2.6870 C.3       5 UNK         0.0716 
     19 N          28.2312   25.8574   -2.2504 N.am      5 UNK        -0.4135 
     20 C          27.6686   24.9199   -3.0162 C.2       4 UNK         0.5031 
     21 O          27.6821   24.9198   -4.2479 O.2       4 UNK        -0.5229 
     22 CA         26.8936   23.8276   -2.2596 C.3       4 UNK         0.0329 
     23 CB         27.8438   22.7339   -1.7446 C.3       4 UNK        -0.2001 
     24 N          26.1043   24.3749   -1.1459 N.am      4 UNK        -0.4303 
     25 C          25.0416   25.1835   -1.2986 C.2       3 UNK         0.5044 
     26 O          24.6015   25.5411   -2.3915 O.2       3 UNK        -0.5152 
     27 CA         24.3625   25.6890   -0.0214 C.3       3 UNK         0.0319 
     28 CB         23.9061   24.5344    0.8932 C.3       3 UNK        -0.2001 
     29 N          25.2583   26.5939    0.6929 N.am      3 UNK        -0.4354 
     30 C          24.8839   27.5226    1.5813 C.2       2 UNK         0.4964 
     31 O          23.7090   27.7730    1.8590 O.2       2 UNK        -0.5047 
     32 CA         26.0327   28.2523    2.3128 C.3       2 UNK         0.0288 
     33 CB         25.5440   29.1961    3.4316 C.3       2 UNK        -0.2113 
     34 N          27.0394   27.3114    2.8268 N.am      2 UNK        -0.4145 
     35 C          26.8170   26.2527    3.6241 C.2       1 UNK         0.5006 
     36 O          25.7362   26.0106    4.1646 O.2       1 UNK        -0.5103 
     37 C          28.0012   28.1695   -1.7178 C.2       5 UNK         0.5055 
     38 O          27.5164   27.7579   -0.6589 O.2       5 UNK        -0.5220 
     39 N          28.0602   29.4683   -2.0388 N.am      6 UNK        -0.4450 
     40 CA         27.6492   30.5627   -1.1454 C.3       6 UNK         0.0367 
     41 CB         27.5635   31.8643   -1.9604 C.3       6 UNK        -0.1929 
     42 C          28.5667   30.7490    0.0862 C.2       6 UNK         0.5070 
     43 O          28.2564   31.5687    0.9501 O.2       6 UNK        -0.5237 
     44 N          29.6779   30.0017    0.1298 N.am      7 UNK        -0.4739 
     45 CA         30.6739   29.9250    1.1943 C.3       7 UNK         0.0276 
     46 CB         31.7337   28.8961    0.7699 C.3       7 UNK        -0.1927 
     47 C          30.0577   29.5438    2.5519 C.2       7 UNK         0.5013 
     48 O          29.6525   28.3933    2.7402 O.2       7 UNK        -0.5193 
     49 N          29.9941   30.5233    3.4607 N.am      8 UNK        -0.4253 
     50 CA         29.5142   30.3780    4.8355 C.3       8 UNK         0.0242 
     51 CB         29.1702   31.7775    5.3772 C.3       8 UNK        -0.2000 
     52 C          30.5417   29.6687    5.7361 C.2       8 UNK         0.4948 
     53 O          31.6520   29.3703    5.2911 O.2       8 UNK        -0.5275 
     54 N          30.1549   29.4429    7.0019 N.am      9 UNK        -0.4246 
     55 CA         30.8753   28.7020    8.0518 C.3       9 UNK         0.0261 
     56 CB         30.1686   28.9298    9.3979 C.3       9 UNK        -0.1959 
     57 C          32.3829   28.9923    8.1946 C.2       9 UNK         0.5033 
     58 O          33.1365   28.0816    8.5411 O.2       9 UNK        -0.5390 
     59 N          32.8030   30.2274    7.8854 N.am      10 UNK        -0.4215 
     60 CA         34.2009   30.6675    7.8270 C.3       10 UNK         0.0240 
     61 CB         34.2396   32.1698    7.5024 C.3       10 UNK        -0.1982 
     62 C          35.0824   29.8809    6.8340 C.2       10 UNK         0.4970 
     63 O          36.2962   29.8286    7.0372 O.2       10 UNK        -0.4916 
     64 N          34.4765   29.2754    5.8015 N.am      11 UNK        -0.4279 
     65 CA         35.1429   28.3478    4.8730 C.3       11 UNK         0.1003 
     66 C          35.5014   26.9674    5.5037 C.2       11 UNK         0.5709 
     67 N          34.9618   26.5961    6.6604 N.am      11 UNK        -0.7358 
     68 O          36.3022   26.2238    4.9439 O.2       11 UNK        -0.4999 
     69 C69        34.3292   28.1948    3.5561 C.3       12 UNK        -0.0954 
     70 S70        35.3622   28.0438    2.0602 S.3       12 UNK        -0.2268 
     71 C71        35.2146   26.2723    1.6547 C.3       12 UNK         0.0203 
     72 H72        31.5369   26.9781    4.2884 H         1 UNK         0.0888 
     73 H73        31.6760   26.5872    6.0065 H         1 UNK         0.0888 
     74 H74        32.3301   25.4866    4.8000 H         1 UNK         0.0888 
     75 H75        29.4065   26.8339    3.6834 H         1 UNK         0.3017 
     76 H76        27.6823   24.6829    4.7108 H         1 UNK         0.0873 
     77 H77        28.6481   23.3852    2.9992 H         1 UNK         0.0745 
     78 H78        27.1579   23.9285    2.3107 H         1 UNK         0.0745 
     79 H79        30.8553   23.9565    2.4480 H         1 UNK         0.0705 
     80 H80        30.5482   23.1140    0.9498 H         1 UNK         0.0705 
     81 H81        32.9349   25.0482    2.5323 H         1 UNK         0.1334 
     82 H82        34.7158   26.7259   -0.9812 H         1 UNK         0.1417 
     83 H83        30.8956   24.7735   -1.2166 H         1 UNK         0.1562 
     84 H84        33.4353   25.4599   -3.2818 H         1 UNK         0.0748 
     85 H85        33.1873   27.1503   -2.9164 H         1 UNK         0.0748 
     86 H86        30.4906   28.3348   -3.0563 H         1 UNK         0.0940 
     87 H87        30.5627   27.3593   -1.6167 H         1 UNK         0.0940 
     88 H88        28.2995   27.3838   -3.6936 H         1 UNK         0.0703 
     89 H89        28.1064   25.7935   -1.2482 H         1 UNK         0.3081 
     90 H90        26.1991   23.3658   -2.9649 H         1 UNK         0.0719 
     91 H91        28.5741   23.1252   -1.0367 H         1 UNK         0.0809 
     92 H92        27.2958   21.9303   -1.2525 H         1 UNK         0.0809 
     93 H93        28.4014   22.2868   -2.5687 H         1 UNK         0.0809 
     94 H94        26.3946   24.1201   -0.2133 H         1 UNK         0.2990 
     95 H95        23.4776   26.2501   -0.3299 H         1 UNK         0.0690 
     96 H96        23.3011   23.8133    0.3419 H         1 UNK         0.0788 
     97 H97        23.2949   24.9037    1.7169 H         1 UNK         0.0788 
     98 H98        24.7489   23.9958    1.3268 H         1 UNK         0.0788 
     99 H99        26.2365   26.5747    0.4219 H         1 UNK         0.2993 
    100 H100       26.5351   28.8659    1.5642 H         1 UNK         0.0949 
    101 H101       26.3757   29.7357    3.8832 H         1 UNK         0.0767 
    102 H102       24.8529   29.9422    3.0377 H         1 UNK         0.0767 
    103 H103       25.0238   28.6543    4.2221 H         1 UNK         0.0767 
    104 H104       27.9797   27.4531    2.4671 H         1 UNK         0.3013 
    105 H105       28.4686   29.7392   -2.9227 H         1 UNK         0.3121 
    106 H106       26.6514   30.3324   -0.7654 H         1 UNK         0.0774 
    107 H107       28.5341   32.1506   -2.3673 H         1 UNK         0.0815 
    108 H108       27.2140   32.6918   -1.3413 H         1 UNK         0.0815 
    109 H109       26.8639   31.7685   -2.7909 H         1 UNK         0.0815 
    110 H110       29.8099   29.3549   -0.6301 H         1 UNK         0.2987 
    111 H111       31.1543   30.9018    1.2778 H         1 UNK         0.0949 
    112 H112       31.3083   27.8975    0.6607 H         1 UNK         0.0806 
    113 H113       32.2081   29.1663   -0.1735 H         1 UNK         0.0806 
    114 H114       32.5219   28.8228    1.5138 H         1 UNK         0.0806 
    115 H115       30.3513   31.4329    3.2095 H         1 UNK         0.3010 
    116 H116       28.6082   29.7690    4.8214 H         1 UNK         0.0829 
    117 H117       28.4551   32.2852    4.7291 H         1 UNK         0.0813 
    118 H118       28.7166   31.7272    6.3675 H         1 UNK         0.0813 
    119 H119       30.0561   32.4093    5.4552 H         1 UNK         0.0813 
    120 H120       29.2294   29.7528    7.2612 H         1 UNK         0.3038 
    121 H121       30.7790   27.6434    7.8088 H         1 UNK         0.0769 
    122 H122       30.6625   28.3769   10.1986 H         1 UNK         0.0811 
    123 H123       30.1697   29.9831    9.6812 H         1 UNK         0.0811 
    124 H124       29.1331   28.5902    9.3677 H         1 UNK         0.0811 
    125 H125       32.1071   30.8967    7.5917 H         1 UNK         0.3204 
    126 H126       34.6283   30.5200    8.8209 H         1 UNK         0.0748 
    127 H127       35.2661   32.5388    7.4802 H         1 UNK         0.0771 
    128 H128       33.7955   32.3830    6.5290 H         1 UNK         0.0771 
    129 H129       33.7049   32.7532    8.2523 H         1 UNK         0.0771 
    130 H130       33.4674   29.3602    5.6957 H         1 UNK         0.2980 
    131 H131       36.0970   28.8136    4.6191 H         1 UNK         0.0545 
    132 H132       35.2186   25.7047    7.0526 H         1 UNK         0.3459 
    133 H133       34.3303   27.2037    7.1704 H         1 UNK         0.3459 
    134 H134       33.7122   29.0813    3.4057 H         1 UNK         0.0616 
    135 H135       33.6337   27.3593    3.6049 H         1 UNK         0.0616 
    136 H136       35.2643   25.6795    2.5683 H         1 UNK         0.0634 
    137 H137       36.0879   25.9845    1.0678 H         1 UNK         0.0634 
@<TRIPOS>BOND
     1    1    2 1    
     2    1   72 1    
     3    1   73 1    
     4    1   74 1    
     5    2    3 2    
     6    2    4 am   BACKBONE|DICT|INTERRES
     7    4    5 1    
     8    4   75 1    
     9    5    6 1    
    10    5   35 1    
    11    5   76 1    
    12    6    7 1    
    13    6   77 1    
    14    6   78 1    
    15    7    8 1    
    16    8    9 1    
    17    8   79 1    
    18    8   80 1    
    19    9   10 ar   
    20    9   14 ar   
    21   10   11 ar   
    22   10   81 1    
    23   11   12 ar   
    24   11   71 1    
    25   12   13 ar   
    26   12   82 1    
    27   13   14 ar   
    28   13   15 1    
    29   14   83 1    
    30   15   16 1    
    31   15   84 1    
    32   15   85 1    
    33   16   17 1    
    34   17   18 1    
    35   17   86 1    
    36   17   87 1    
    37   18   19 1    
    38   18   37 1    
    39   18   88 1    
    40   19   20 am   BACKBONE|DICT|INTERRES
    41   19   89 1    
    42   20   21 2    
    43   20   22 1    
    44   22   23 1    
    45   22   24 1    
    46   22   90 1    
    47   23   91 1    
    48   23   92 1    
    49   23   93 1    
    50   24   25 am   BACKBONE|DICT|INTERRES
    51   24   94 1    
    52   25   26 2    
    53   25   27 1    
    54   27   28 1    
    55   27   29 1    
    56   27   95 1    
    57   28   96 1    
    58   28   97 1    
    59   28   98 1    
    60   29   30 am   BACKBONE|DICT|INTERRES
    61   29   99 1    
    62   30   31 2    
    63   30   32 1    
    64   32   33 1    
    65   32   34 1    
    66   32  100 1    
    67   33  101 1    
    68   33  102 1    
    69   33  103 1    
    70   34   35 am   BACKBONE|DICT|INTERRES
    71   34  104 1    
    72   35   36 2    
    73   37   38 2    
    74   37   39 am   BACKBONE|DICT|INTERRES
    75   39   40 1    
    76   39  105 1    
    77   40   41 1    
    78   40   42 1    
    79   40  106 1    
    80   41  107 1    
    81   41  108 1    
    82   41  109 1    
    83   42   43 2    
    84   42   44 am   BACKBONE|DICT|INTERRES
    85   44   45 1    
    86   44  110 1    
    87   45   46 1    
    88   45   47 1    
    89   45  111 1    
    90   46  112 1    
    91   46  113 1    
    92   46  114 1    
    93   47   48 2    
    94   47   49 am   BACKBONE|DICT|INTERRES
    95   49   50 1    
    96   49  115 1    
    97   50   51 1    
    98   50   52 1    
    99   50  116 1    
   100   51  117 1    
   101   51  118 1    
   102   51  119 1    
   103   52   53 2    
   104   52   54 am   BACKBONE|DICT|INTERRES
   105   54   55 1    
   106   54  120 1    
   107   55   56 1    
   108   55   57 1    
   109   55  121 1    
   110   56  122 1    
   111   56  123 1    
   112   56  124 1    
   113   57   58 2    
   114   57   59 am   BACKBONE|DICT|INTERRES
   115   59   60 1    
   116   59  125 1    
   117   60   61 1    
   118   60   62 1    
   119   60  126 1    
   120   61  127 1    
   121   61  128 1    
   122   61  129 1    
   123   62   63 2    
   124   62   64 am   BACKBONE|DICT|INTERRES
   125   64   65 1    
   126   64  130 1    
   127   65   66 1    
   128   65   69 1    
   129   65  131 1    
   130   66   67 am   BACKBONE|DICT|INTERRES
   131   66   68 2    
   132   67  132 1    
   133   67  133 1    
   134   69   70 1    
   135   69  134 1    
   136   69  135 1    
   137   70   71 1    
   138   71  136 1    
   139   71  137 1    
@<TRIPOS>SUBSTRUCTURE
     1 UNK         1 GROUP             0       ****    0 ROOT    
