@<TRIPOS>MOLECULE
3R136
137   139    1
SMALL
USER_CHARGES


@<TRIPOS>ATOM
      1 CA         32.5033   25.4408   -4.0295 C.3       0 UNK        -0.1979 
      2 C          31.7652   26.4615   -3.1761 C.2       0 UNK         0.4864 
      3 O          31.8689   27.6622   -3.4311 O.2       0 UNK        -0.5359 
      4 N          31.0293   25.9932   -2.1612 N.am      1 UNK        -0.4318 
      5 CA         30.1949   26.8159   -1.2836 C.3       1 UNK         0.0824 
      6 C6         29.9611   26.1486    0.0998 C.3       12 UNK        -0.0944 
      7 S7         29.4755   24.3844    0.0575 S.3       12 UNK        -0.2672 
      8 C8         31.0503   23.5379    0.4280 C.3       12 UNK         0.0333 
      9 C9         31.4372   23.6628    1.8949 C.ar      12 UNK        -0.0807 
     10 C10        32.3509   24.6371    2.3053 C.ar      12 UNK        -0.0894 
     11 C11        32.6782   24.7826    3.6558 C.ar      12 UNK        -0.0804 
     12 C12        32.0970   23.9341    4.6019 C.ar      12 UNK        -0.0824 
     13 C13        31.1991   22.9389    4.2020 C.ar      12 UNK        -0.0762 
     14 C14        30.8835   22.8004    2.8450 C.ar      12 UNK        -0.0782 
     15 C15        30.5535   22.0297    5.2394 C.3       12 UNK         0.0230 
     16 S16        28.7330   22.0941    5.1794 S.3       12 UNK        -0.2608 
     17 C17        28.3897   23.8397    5.6039 C.3       12 UNK        -0.0989 
     18 CA         28.3474   24.8002    4.3773 C.3       5 UNK         0.0716 
     19 N          27.5672   24.2899    3.2447 N.am      5 UNK        -0.4135 
     20 C          26.2525   24.0360    3.2134 C.2       4 UNK         0.5031 
     21 O          25.4827   24.1976    4.1626 O.2       4 UNK        -0.5229 
     22 CA         25.7083   23.5467    1.8569 C.3       4 UNK         0.0329 
     23 CB         24.6829   22.4142    2.0418 C.3       4 UNK        -0.2001 
     24 N          25.1070   24.6088    1.0395 N.am      4 UNK        -0.4303 
     25 C          25.6548   25.7964    0.7475 C.2       3 UNK         0.5044 
     26 O          26.7260   26.2027    1.2088 O.2       3 UNK        -0.5152 
     27 CA         24.8890   26.6846   -0.2396 C.3       3 UNK         0.0319 
     28 CB         23.6874   27.3773    0.4252 C.3       3 UNK        -0.2001 
     29 N          25.8448   27.6739   -0.7165 N.am      3 UNK        -0.4354 
     30 C          25.8905   28.2386   -1.9236 C.2       2 UNK         0.4964 
     31 O          25.0022   28.1370   -2.7705 O.2       2 UNK        -0.5047 
     32 CA         27.1739   29.0255   -2.2477 C.3       2 UNK         0.0288 
     33 CB         27.0464   30.4817   -1.7714 C.3       2 UNK        -0.2113 
     34 N          28.3905   28.4337   -1.6720 N.am      2 UNK        -0.4145 
     35 C          28.8836   27.2247   -1.9866 C.2       1 UNK         0.5006 
     36 O          28.3539   26.4560   -2.7941 O.2       1 UNK        -0.5103 
     37 C          27.9723   26.2470    4.7742 C.2       5 UNK         0.5055 
     38 O          28.2144   26.6401    5.9170 O.2       5 UNK        -0.5220 
     39 N          27.4028   27.0235    3.8417 N.am      6 UNK        -0.4450 
     40 CA         26.9412   28.3900    4.0698 C.3       6 UNK         0.0367 
     41 CB         25.5390   28.3535    4.7137 C.3       6 UNK        -0.1929 
     42 C          26.9631   29.1839    2.7505 C.2       6 UNK         0.5070 
     43 O          25.8990   29.5030    2.2253 O.2       6 UNK        -0.5237 
     44 N          28.1250   29.5046    2.1701 N.am      7 UNK        -0.4739 
     45 CA         29.5021   29.2493    2.5871 C.3       7 UNK         0.0276 
     46 CB         29.9282   30.2604    3.6698 C.3       7 UNK        -0.1927 
     47 C          30.3905   29.4151    1.3466 C.2       7 UNK         0.5013 
     48 O          29.9166   29.9037    0.3161 O.2       7 UNK        -0.5193 
     49 N          31.6683   29.0402    1.4681 N.am      8 UNK        -0.4253 
     50 CA         32.7210   29.3069    0.4831 C.3       8 UNK         0.0242 
     51 CB         33.5833   28.0421    0.3016 C.3       8 UNK        -0.2000 
     52 C          33.5463   30.5312    0.9251 C.2       8 UNK         0.4948 
     53 O          34.7730   30.4545    1.0014 O.2       8 UNK        -0.5275 
     54 N          32.8432   31.6297    1.2473 N.am      9 UNK        -0.4246 
     55 CA         33.3601   32.9233    1.7252 C.3       9 UNK         0.0261 
     56 CB         34.1949   33.6167    0.6267 C.3       9 UNK        -0.1959 
     57 C          34.1027   32.8649    3.0802 C.2       9 UNK         0.5033 
     58 O          34.8904   33.7643    3.3805 O.2       9 UNK        -0.5390 
     59 N          33.8270   31.8307    3.8826 N.am      10 UNK        -0.4215 
     60 CA         34.3971   31.5788    5.2041 C.3       10 UNK         0.0240 
     61 CB         35.8684   31.1151    5.0813 C.3       10 UNK        -0.1982 
     62 C          33.4701   30.5787    5.9112 C.2       10 UNK         0.4970 
     63 O          32.2895   30.8837    6.0797 O.2       10 UNK        -0.4916 
     64 N          33.9980   29.4006    6.2660 N.am      11 UNK        -0.4279 
     65 CA         33.2642   28.2216    6.7671 C.3       11 UNK         0.1003 
     66 C          32.6669   28.3662    8.1995 C.2       11 UNK         0.5709 
     67 N          33.0356   29.3820    8.9708 N.am      11 UNK        -0.7358 
     68 O          31.8870   27.5239    8.6376 O.2       11 UNK        -0.4999 
     69 C69        32.2345   27.6497    5.7431 C.3       12 UNK        -0.0954 
     70 S70        32.9100   27.5060    4.0537 S.3       12 UNK        -0.2268 
     71 C71        33.6682   25.8547    4.0785 C.3       12 UNK         0.0203 
     72 H72        32.1688   25.5057   -5.0645 H         1 UNK         0.0888 
     73 H73        33.5751   25.6358   -4.0042 H         1 UNK         0.0888 
     74 H74        32.3360   24.4214   -3.6821 H         1 UNK         0.0888 
     75 H75        30.9256   24.9972   -2.0324 H         1 UNK         0.3017 
     76 H76        30.7453   27.7399   -1.1030 H         1 UNK         0.0873 
     77 H77        30.8675   26.2473    0.6928 H         1 UNK         0.0745 
     78 H78        29.2054   26.6942    0.6652 H         1 UNK         0.0745 
     79 H79        30.9491   22.4830    0.1685 H         1 UNK         0.0705 
     80 H80        31.8414   23.9318   -0.2116 H         1 UNK         0.0705 
     81 H81        32.8028   25.2947    1.5762 H         1 UNK         0.1334 
     82 H82        32.3440   24.0500    5.6485 H         1 UNK         0.1417 
     83 H83        30.1808   22.0391    2.5337 H         1 UNK         0.1562 
     84 H84        30.8847   22.2839    6.2475 H         1 UNK         0.0748 
     85 H85        30.8762   21.0036    5.0586 H         1 UNK         0.0748 
     86 H86        29.1358   24.1768    6.3260 H         1 UNK         0.0940 
     87 H87        27.4335   23.8652    6.1298 H         1 UNK         0.0940 
     88 H88        29.3630   24.8944    3.9965 H         1 UNK         0.0703 
     89 H89        28.0860   24.1839    2.3832 H         1 UNK         0.3081 
     90 H90        26.5450   23.1397    1.2849 H         1 UNK         0.0719 
     91 H91        23.7782   22.7658    2.5396 H         1 UNK         0.0809 
     92 H92        24.3932   21.9782    1.0856 H         1 UNK         0.0809 
     93 H93        25.0972   21.6093    2.6508 H         1 UNK         0.0809 
     94 H94        24.2119   24.3893    0.6274 H         1 UNK         0.2990 
     95 H95        24.5519   26.0697   -1.0767 H         1 UNK         0.0690 
     96 H96        23.1929   28.0611   -0.2648 H         1 UNK         0.0788 
     97 H97        23.9862   27.9486    1.3042 H         1 UNK         0.0788 
     98 H98        22.9437   26.6483    0.7483 H         1 UNK         0.0788 
     99 H99        26.6395   27.7771   -0.0971 H         1 UNK         0.2993 
    100 H100       27.2904   29.0269   -3.3336 H         1 UNK         0.0949 
    101 H101       26.1753   30.9632   -2.2182 H         1 UNK         0.0767 
    102 H102       26.9332   30.5438   -0.6882 H         1 UNK         0.0767 
    103 H103       27.9209   31.0696   -2.0515 H         1 UNK         0.0767 
    104 H104       28.9077   29.0146   -1.0159 H         1 UNK         0.3013 
    105 H105       27.2340   26.6508    2.9067 H         1 UNK         0.3121 
    106 H106       27.6077   28.8899    4.7706 H         1 UNK         0.0774 
    107 H107       25.5603   27.8640    5.6874 H         1 UNK         0.0815 
    108 H108       25.1520   29.3615    4.8679 H         1 UNK         0.0815 
    109 H109       24.8241   27.8182    4.0873 H         1 UNK         0.0815 
    110 H110       28.0920   29.9951    1.2851 H         1 UNK         0.2987 
    111 H111       29.6126   28.2273    2.9522 H         1 UNK         0.0949 
    112 H112       29.8077   31.2897    3.3295 H         1 UNK         0.0806 
    113 H113       29.3660   30.1532    4.5946 H         1 UNK         0.0806 
    114 H114       30.9763   30.1290    3.9345 H         1 UNK         0.0806 
    115 H115       31.9810   28.6354    2.3433 H         1 UNK         0.3010 
    116 H116       32.2860   29.5529   -0.4881 H         1 UNK         0.0829 
    117 H117       32.9877   27.1969   -0.0397 H         1 UNK         0.0813 
    118 H118       34.3599   28.2052   -0.4468 H         1 UNK         0.0813 
    119 H119       34.0803   27.7524    1.2278 H         1 UNK         0.0813 
    120 H120       31.8394   31.5827    1.1336 H         1 UNK         0.3038 
    121 H121       32.4814   33.5451    1.9033 H         1 UNK         0.0769 
    122 H122       35.1314   33.0906    0.4384 H         1 UNK         0.0811 
    123 H123       34.4493   34.6383    0.9115 H         1 UNK         0.0811 
    124 H124       33.6464   33.6731   -0.3135 H         1 UNK         0.0811 
    125 H125       33.1325   31.1634    3.5804 H         1 UNK         0.3204 
    126 H126       34.3670   32.5044    5.7825 H         1 UNK         0.0748 
    127 H127       36.4881   31.8893    4.6287 H         1 UNK         0.0771 
    128 H128       36.3032   30.9020    6.0588 H         1 UNK         0.0771 
    129 H129       35.9641   30.2215    4.4625 H         1 UNK         0.0771 
    130 H130       34.9826   29.2545    6.0998 H         1 UNK         0.2980 
    131 H131       34.0339   27.4585    6.8850 H         1 UNK         0.0545 
    132 H132       32.6544   29.4600    9.9004 H         1 UNK         0.3459 
    133 H133       33.6796   30.0758    8.6274 H         1 UNK         0.3459 
    134 H134       31.8741   26.6699    6.0610 H         1 UNK         0.0616 
    135 H135       31.3527   28.2906    5.6959 H         1 UNK         0.0616 
    136 H136       34.0790   25.6458    5.0674 H         1 UNK         0.0634 
    137 H137       34.5150   25.8513    3.3907 H         1 UNK         0.0634 
@<TRIPOS>BOND
     1    1    2 1    
     2    1   72 1    
     3    1   73 1    
     4    1   74 1    
     5    2    3 2    
     6    2    4 am   BACKBONE|DICT|INTERRES
     7    4    5 1    
     8    4   75 1    
     9    5    6 1    
    10    5   35 1    
    11    5   76 1    
    12    6    7 1    
    13    6   77 1    
    14    6   78 1    
    15    7    8 1    
    16    8    9 1    
    17    8   79 1    
    18    8   80 1    
    19    9   10 ar   
    20    9   14 ar   
    21   10   11 ar   
    22   10   81 1    
    23   11   12 ar   
    24   11   71 1    
    25   12   13 ar   
    26   12   82 1    
    27   13   14 ar   
    28   13   15 1    
    29   14   83 1    
    30   15   16 1    
    31   15   84 1    
    32   15   85 1    
    33   16   17 1    
    34   17   18 1    
    35   17   86 1    
    36   17   87 1    
    37   18   19 1    
    38   18   37 1    
    39   18   88 1    
    40   19   20 am   BACKBONE|DICT|INTERRES
    41   19   89 1    
    42   20   21 2    
    43   20   22 1    
    44   22   23 1    
    45   22   24 1    
    46   22   90 1    
    47   23   91 1    
    48   23   92 1    
    49   23   93 1    
    50   24   25 am   BACKBONE|DICT|INTERRES
    51   24   94 1    
    52   25   26 2    
    53   25   27 1    
    54   27   28 1    
    55   27   29 1    
    56   27   95 1    
    57   28   96 1    
    58   28   97 1    
    59   28   98 1    
    60   29   30 am   BACKBONE|DICT|INTERRES
    61   29   99 1    
    62   30   31 2    
    63   30   32 1    
    64   32   33 1    
    65   32   34 1    
    66   32  100 1    
    67   33  101 1    
    68   33  102 1    
    69   33  103 1    
    70   34   35 am   BACKBONE|DICT|INTERRES
    71   34  104 1    
    72   35   36 2    
    73   37   38 2    
    74   37   39 am   BACKBONE|DICT|INTERRES
    75   39   40 1    
    76   39  105 1    
    77   40   41 1    
    78   40   42 1    
    79   40  106 1    
    80   41  107 1    
    81   41  108 1    
    82   41  109 1    
    83   42   43 2    
    84   42   44 am   BACKBONE|DICT|INTERRES
    85   44   45 1    
    86   44  110 1    
    87   45   46 1    
    88   45   47 1    
    89   45  111 1    
    90   46  112 1    
    91   46  113 1    
    92   46  114 1    
    93   47   48 2    
    94   47   49 am   BACKBONE|DICT|INTERRES
    95   49   50 1    
    96   49  115 1    
    97   50   51 1    
    98   50   52 1    
    99   50  116 1    
   100   51  117 1    
   101   51  118 1    
   102   51  119 1    
   103   52   53 2    
   104   52   54 am   BACKBONE|DICT|INTERRES
   105   54   55 1    
   106   54  120 1    
   107   55   56 1    
   108   55   57 1    
   109   55  121 1    
   110   56  122 1    
   111   56  123 1    
   112   56  124 1    
   113   57   58 2    
   114   57   59 am   BACKBONE|DICT|INTERRES
   115   59   60 1    
   116   59  125 1    
   117   60   61 1    
   118   60   62 1    
   119   60  126 1    
   120   61  127 1    
   121   61  128 1    
   122   61  129 1    
   123   62   63 2    
   124   62   64 am   BACKBONE|DICT|INTERRES
   125   64   65 1    
   126   64  130 1    
   127   65   66 1    
   128   65   69 1    
   129   65  131 1    
   130   66   67 am   BACKBONE|DICT|INTERRES
   131   66   68 2    
   132   67  132 1    
   133   67  133 1    
   134   69   70 1    
   135   69  134 1    
   136   69  135 1    
   137   70   71 1    
   138   71  136 1    
   139   71  137 1    
@<TRIPOS>SUBSTRUCTURE
     1 UNK         1 GROUP             0       ****    0 ROOT    
