@<TRIPOS>MOLECULE
3R136
137   139    1
SMALL
USER_CHARGES


@<TRIPOS>ATOM
      1 CA         29.5192   16.7766   -0.4262 C.3       0 UNK        -0.1979 
      2 C          29.8192   18.2654   -0.3300 C.2       0 UNK         0.4864 
      3 O          30.7781   18.7368   -0.9437 O.2       0 UNK        -0.5359 
      4 N          29.0129   19.0070    0.4410 N.am      1 UNK        -0.4318 
      5 CA         29.1114   20.4604    0.5962 C.3       1 UNK         0.0824 
      6 C6         28.3195   20.9367    1.8408 C.3       12 UNK        -0.0944 
      7 S7         28.6367   22.6823    2.2722 S.3       12 UNK        -0.2672 
      8 C8         29.5532   22.5293    3.8348 C.3       12 UNK         0.0333 
      9 C9         29.8611   23.9099    4.3898 C.ar      12 UNK        -0.0807 
     10 C10        31.1281   24.4761    4.2329 C.ar      12 UNK        -0.0894 
     11 C11        31.3851   25.7724    4.6913 C.ar      12 UNK        -0.0804 
     12 C12        30.3645   26.5029    5.3092 C.ar      12 UNK        -0.0824 
     13 C13        29.0941   25.9444    5.4758 C.ar      12 UNK        -0.0762 
     14 C14        28.8574   24.6396    5.0298 C.ar      12 UNK        -0.0782 
     15 C15        27.9764   26.7403    6.1385 C.3       12 UNK         0.0230 
     16 S16        26.4647   26.7419    5.1190 S.3       12 UNK        -0.2608 
     17 C17        26.2776   28.4753    4.5865 C.3       12 UNK        -0.0989 
     18 CA         27.4810   29.1292    3.8517 C.3       5 UNK         0.0716 
     19 N          28.1511   28.2334    2.9025 N.am      5 UNK        -0.4135 
     20 C          29.1862   28.5553    2.1100 C.2       4 UNK         0.5031 
     21 O          29.8112   29.6147    2.2012 O.2       4 UNK        -0.5229 
     22 CA         29.5656   27.5721    0.9867 C.3       4 UNK         0.0329 
     23 CB         30.9752   26.9999    1.1994 C.3       4 UNK        -0.2001 
     24 N          28.6241   26.4672    0.7697 N.am      4 UNK        -0.4303 
     25 C          27.3464   26.5805    0.3744 C.2       3 UNK         0.5044 
     26 O          26.7701   27.6610    0.2290 O.2       3 UNK        -0.5152 
     27 CA         26.5972   25.2546    0.1368 C.3       3 UNK         0.0319 
     28 CB         25.2579   25.4379   -0.6083 C.3       3 UNK        -0.2001 
     29 N          27.4463   24.2443   -0.5117 N.am      3 UNK        -0.4354 
     30 C          27.9838   24.2934   -1.7426 C.2       2 UNK         0.4964 
     31 O          27.7500   25.1899   -2.5538 O.2       2 UNK        -0.5047 
     32 CA         28.9794   23.1802   -2.1356 C.3       2 UNK         0.0288 
     33 CB         30.2866   23.7824   -2.6836 C.3       2 UNK        -0.2113 
     34 N          29.3159   22.2856   -1.0236 N.am      2 UNK        -0.4145 
     35 C          28.6413   21.1781   -0.6888 C.2       1 UNK         0.5006 
     36 O          27.6638   20.7534   -1.3107 O.2       1 UNK        -0.5103 
     37 C          26.9917   30.4214    3.1634 C.2       5 UNK         0.5055 
     38 O          27.1649   31.5076    3.7165 O.2       5 UNK        -0.5220 
     39 N          26.4266   30.2747    1.9527 N.am      6 UNK        -0.4450 
     40 CA         25.8887   31.3615    1.1277 C.3       6 UNK         0.0367 
     41 CB         25.1111   30.7572   -0.0522 C.3       6 UNK        -0.1929 
     42 C          26.9571   32.3450    0.6178 C.2       6 UNK         0.5070 
     43 O          26.6214   33.4832    0.2923 O.2       6 UNK        -0.5237 
     44 N          28.2222   31.9080    0.5903 N.am      7 UNK        -0.4739 
     45 CA         29.3958   32.7188    0.2636 C.3       7 UNK         0.0276 
     46 CB         30.3653   31.8556   -0.5625 C.3       7 UNK        -0.1927 
     47 C          30.0571   33.3049    1.5296 C.2       7 UNK         0.5013 
     48 O          31.2513   33.6030    1.5043 O.2       7 UNK        -0.5193 
     49 N          29.2729   33.4544    2.6099 N.am      8 UNK        -0.4253 
     50 CA         29.6533   33.9303    3.9451 C.3       8 UNK         0.0242 
     51 CB         30.1521   35.3914    3.9025 C.3       8 UNK        -0.2000 
     52 C          30.6268   32.9693    4.6521 C.2       8 UNK         0.4948 
     53 O          31.5987   33.4173    5.2630 O.2       8 UNK        -0.5275 
     54 N          30.3276   31.6644    4.5519 N.am      9 UNK        -0.4246 
     55 CA         31.0932   30.5264    5.0738 C.3       9 UNK         0.0261 
     56 CB         31.0856   30.5068    6.6165 C.3       9 UNK        -0.1959 
     57 C          32.5061   30.4663    4.4706 C.2       9 UNK         0.5033 
     58 O          33.5005   30.5551    5.1953 O.2       9 UNK        -0.5390 
     59 N          32.5667   30.3203    3.1401 N.am      10 UNK        -0.4215 
     60 CA         33.7993   30.2798    2.3434 C.3       10 UNK         0.0240 
     61 CB         33.4614   30.6028    0.8774 C.3       10 UNK        -0.1982 
     62 C          34.5728   28.9526    2.4915 C.2       10 UNK         0.4970 
     63 O          34.8049   28.2567    1.5017 O.2       10 UNK        -0.4916 
     64 N          34.9410   28.6170    3.7319 N.am      11 UNK        -0.4279 
     65 CA         35.6924   27.4078    4.0983 C.3       11 UNK         0.1003 
     66 C          37.2253   27.5147    3.8429 C.2       11 UNK         0.5709 
     67 N          37.7708   28.6795    3.5117 N.am      11 UNK        -0.7358 
     68 O          37.9334   26.5147    3.9363 O.2       11 UNK        -0.4999 
     69 C69        35.4010   26.9794    5.5645 C.3       12 UNK        -0.0954 
     70 S70        33.6734   26.5708    6.0296 S.3       12 UNK        -0.2268 
     71 C71        32.7509   26.4001    4.4693 C.3       12 UNK         0.0203 
     72 H72        30.3761   16.1980   -0.0824 H         1 UNK         0.0888 
     73 H73        28.6562   16.4946    0.1767 H         1 UNK         0.0888 
     74 H74        29.3144   16.5017   -1.4604 H         1 UNK         0.0888 
     75 H75        28.2232   18.5695    0.8940 H         1 UNK         0.3017 
     76 H76        30.1662   20.6959    0.7568 H         1 UNK         0.0873 
     77 H77        27.2457   20.8076    1.6896 H         1 UNK         0.0745 
     78 H78        28.5734   20.3141    2.7004 H         1 UNK         0.0745 
     79 H79        28.9608   21.9641    4.5561 H         1 UNK         0.0705 
     80 H80        30.4712   21.9636    3.6672 H         1 UNK         0.0705 
     81 H81        31.9068   23.9159    3.7334 H         1 UNK         0.1334 
     82 H82        30.5641   27.5041    5.6616 H         1 UNK         0.1417 
     83 H83        27.8760   24.2006    5.1494 H         1 UNK         0.1562 
     84 H84        28.2894   27.7627    6.3536 H         1 UNK         0.0748 
     85 H85        27.7473   26.2821    7.1015 H         1 UNK         0.0748 
     86 H86        26.0155   29.0703    5.4638 H         1 UNK         0.0940 
     87 H87        25.3871   28.4857    3.9534 H         1 UNK         0.0940 
     88 H88        28.2225   29.4137    4.5986 H         1 UNK         0.0703 
     89 H89        27.7260   27.3261    2.7828 H         1 UNK         0.3081 
     90 H90        29.5831   28.1627    0.0684 H         1 UNK         0.0719 
     91 H91        30.9965   26.2888    2.0225 H         1 UNK         0.0809 
     92 H92        31.3300   26.4846    0.3068 H         1 UNK         0.0809 
     93 H93        31.6983   27.7850    1.4235 H         1 UNK         0.0809 
     94 H94        28.9955   25.5364    0.8925 H         1 UNK         0.2990 
     95 H95        26.3650   24.8614    1.1279 H         1 UNK         0.0690 
     96 H96        24.7542   24.4834   -0.7602 H         1 UNK         0.0788 
     97 H97        25.3939   25.9060   -1.5836 H         1 UNK         0.0788 
     98 H98        24.5802   26.0746   -0.0382 H         1 UNK         0.0788 
     99 H99        27.7084   23.4646    0.0767 H         1 UNK         0.2993 
    100 H100       28.5108   22.6014   -2.9348 H         1 UNK         0.0949 
    101 H101       30.9868   23.0027   -2.9846 H         1 UNK         0.0767 
    102 H102       30.0983   24.3990   -3.5637 H         1 UNK         0.0767 
    103 H103       30.7823   24.4129   -1.9441 H         1 UNK         0.0767 
    104 H104       30.0958   22.5674   -0.4461 H         1 UNK         0.3013 
    105 H105       26.3828   29.3457    1.5460 H         1 UNK         0.3121 
    106 H106       25.1904   31.9323    1.7434 H         1 UNK         0.0774 
    107 H107       25.7577   30.1605   -0.6972 H         1 UNK         0.0815 
    108 H108       24.6660   31.5389   -0.6694 H         1 UNK         0.0815 
    109 H109       24.2993   30.1164    0.2925 H         1 UNK         0.0815 
    110 H110       28.4134   30.9710    0.9202 H         1 UNK         0.2987 
    111 H111       29.0983   33.5690   -0.3540 H         1 UNK         0.0949 
    112 H112       30.6954   30.9809   -0.0033 H         1 UNK         0.0806 
    113 H113       29.8949   31.5042   -1.4808 H         1 UNK         0.0806 
    114 H114       31.2524   32.4197   -0.8532 H         1 UNK         0.0806 
    115 H115       28.3156   33.1353    2.5301 H         1 UNK         0.3010 
    116 H116       28.7382   33.9176    4.5396 H         1 UNK         0.0829 
    117 H117       31.1048   35.4818    3.3799 H         1 UNK         0.0813 
    118 H118       29.4329   36.0424    3.4057 H         1 UNK         0.0813 
    119 H119       30.2992   35.7814    4.9103 H         1 UNK         0.0813 
    120 H120       29.5184   31.4248    3.9938 H         1 UNK         0.3038 
    121 H121       30.5815   29.6258    4.7381 H         1 UNK         0.0769 
    122 H122       31.5948   29.6197    6.9957 H         1 UNK         0.0811 
    123 H123       31.5937   31.3748    7.0377 H         1 UNK         0.0811 
    124 H124       30.0686   30.4903    7.0079 H         1 UNK         0.0811 
    125 H125       31.6896   30.2221    2.6363 H         1 UNK         0.3204 
    126 H126       34.4606   31.0702    2.7050 H         1 UNK         0.0748 
    127 H127       34.3607   30.6156    0.2602 H         1 UNK         0.0771 
    128 H128       32.7807   29.8673    0.4476 H         1 UNK         0.0771 
    129 H129       33.0019   31.5868    0.7895 H         1 UNK         0.0771 
    130 H130       34.6742   29.2400    4.4902 H         1 UNK         0.2980 
    131 H131       35.3685   26.5982    3.4442 H         1 UNK         0.0545 
    132 H132       38.7635   28.7299    3.3446 H         1 UNK         0.3459 
    133 H133       37.2025   29.5072    3.4348 H         1 UNK         0.3459 
    134 H134       35.9919   26.0959    5.8134 H         1 UNK         0.0616 
    135 H135       35.7416   27.7597    6.2475 H         1 UNK         0.0616 
    136 H136       33.3229   25.7970    3.7644 H         1 UNK         0.0634 
    137 H137       32.6082   27.3784    4.0133 H         1 UNK         0.0634 
@<TRIPOS>BOND
     1    1    2 1    
     2    1   72 1    
     3    1   73 1    
     4    1   74 1    
     5    2    3 2    
     6    2    4 am   BACKBONE|DICT|INTERRES
     7    4    5 1    
     8    4   75 1    
     9    5    6 1    
    10    5   35 1    
    11    5   76 1    
    12    6    7 1    
    13    6   77 1    
    14    6   78 1    
    15    7    8 1    
    16    8    9 1    
    17    8   79 1    
    18    8   80 1    
    19    9   10 ar   
    20    9   14 ar   
    21   10   11 ar   
    22   10   81 1    
    23   11   12 ar   
    24   11   71 1    
    25   12   13 ar   
    26   12   82 1    
    27   13   14 ar   
    28   13   15 1    
    29   14   83 1    
    30   15   16 1    
    31   15   84 1    
    32   15   85 1    
    33   16   17 1    
    34   17   18 1    
    35   17   86 1    
    36   17   87 1    
    37   18   19 1    
    38   18   37 1    
    39   18   88 1    
    40   19   20 am   BACKBONE|DICT|INTERRES
    41   19   89 1    
    42   20   21 2    
    43   20   22 1    
    44   22   23 1    
    45   22   24 1    
    46   22   90 1    
    47   23   91 1    
    48   23   92 1    
    49   23   93 1    
    50   24   25 am   BACKBONE|DICT|INTERRES
    51   24   94 1    
    52   25   26 2    
    53   25   27 1    
    54   27   28 1    
    55   27   29 1    
    56   27   95 1    
    57   28   96 1    
    58   28   97 1    
    59   28   98 1    
    60   29   30 am   BACKBONE|DICT|INTERRES
    61   29   99 1    
    62   30   31 2    
    63   30   32 1    
    64   32   33 1    
    65   32   34 1    
    66   32  100 1    
    67   33  101 1    
    68   33  102 1    
    69   33  103 1    
    70   34   35 am   BACKBONE|DICT|INTERRES
    71   34  104 1    
    72   35   36 2    
    73   37   38 2    
    74   37   39 am   BACKBONE|DICT|INTERRES
    75   39   40 1    
    76   39  105 1    
    77   40   41 1    
    78   40   42 1    
    79   40  106 1    
    80   41  107 1    
    81   41  108 1    
    82   41  109 1    
    83   42   43 2    
    84   42   44 am   BACKBONE|DICT|INTERRES
    85   44   45 1    
    86   44  110 1    
    87   45   46 1    
    88   45   47 1    
    89   45  111 1    
    90   46  112 1    
    91   46  113 1    
    92   46  114 1    
    93   47   48 2    
    94   47   49 am   BACKBONE|DICT|INTERRES
    95   49   50 1    
    96   49  115 1    
    97   50   51 1    
    98   50   52 1    
    99   50  116 1    
   100   51  117 1    
   101   51  118 1    
   102   51  119 1    
   103   52   53 2    
   104   52   54 am   BACKBONE|DICT|INTERRES
   105   54   55 1    
   106   54  120 1    
   107   55   56 1    
   108   55   57 1    
   109   55  121 1    
   110   56  122 1    
   111   56  123 1    
   112   56  124 1    
   113   57   58 2    
   114   57   59 am   BACKBONE|DICT|INTERRES
   115   59   60 1    
   116   59  125 1    
   117   60   61 1    
   118   60   62 1    
   119   60  126 1    
   120   61  127 1    
   121   61  128 1    
   122   61  129 1    
   123   62   63 2    
   124   62   64 am   BACKBONE|DICT|INTERRES
   125   64   65 1    
   126   64  130 1    
   127   65   66 1    
   128   65   69 1    
   129   65  131 1    
   130   66   67 am   BACKBONE|DICT|INTERRES
   131   66   68 2    
   132   67  132 1    
   133   67  133 1    
   134   69   70 1    
   135   69  134 1    
   136   69  135 1    
   137   70   71 1    
   138   71  136 1    
   139   71  137 1    
@<TRIPOS>SUBSTRUCTURE
     1 UNK         1 GROUP             0       ****    0 ROOT    
