@<TRIPOS>MOLECULE
3R136
137   139    1
SMALL
USER_CHARGES


@<TRIPOS>ATOM
      1 CA         30.6552   22.1733   -4.0894 C.3       0 UNK        -0.1979 
      2 C          30.7492   22.9201   -2.7666 C.2       0 UNK         0.4864 
      3 O          29.8324   22.8261   -1.9499 O.2       0 UNK        -0.5359 
      4 N          31.8527   23.6513   -2.5544 N.am      1 UNK        -0.4318 
      5 CA         32.1272   24.4908   -1.3818 C.3       1 UNK         0.0824 
      6 C6         32.2186   23.6734   -0.0598 C.3       12 UNK        -0.0944 
      7 S7         33.4015   24.4041    1.1168 S.3       12 UNK        -0.2672 
      8 C8         32.9916   23.4854    2.6319 C.3       12 UNK         0.0333 
      9 C9         31.8188   24.1025    3.3813 C.ar      12 UNK        -0.0807 
     10 C10        31.9357   25.3883    3.9150 C.ar      12 UNK        -0.0894 
     11 C11        30.8966   25.9460    4.6626 C.ar      12 UNK        -0.0804 
     12 C12        29.7359   25.2021    4.8913 C.ar      12 UNK        -0.0824 
     13 C13        29.6047   23.9117    4.3656 C.ar      12 UNK        -0.0762 
     14 C14        30.6445   23.3736    3.5979 C.ar      12 UNK        -0.0782 
     15 C15        28.3751   23.0684    4.6822 C.3       12 UNK         0.0230 
     16 S16        26.9910   23.3748    3.5383 S.3       12 UNK        -0.2608 
     17 C17        26.2853   24.9214    4.2045 C.3       12 UNK        -0.0989 
     18 CA         26.4450   26.0982    3.2038 C.3       5 UNK         0.0716 
     19 N          25.6852   25.9027    1.9613 N.am      5 UNK        -0.4135 
     20 C          24.3480   25.8985    1.8268 C.2       4 UNK         0.5031 
     21 O          23.5691   25.9100    2.7814 O.2       4 UNK        -0.5229 
     22 CA         23.7738   25.9440    0.3920 C.3       4 UNK         0.0329 
     23 CB         22.4992   26.8116    0.3134 C.3       4 UNK        -0.2001 
     24 N          24.7338   26.3699   -0.6373 N.am      4 UNK        -0.4303 
     25 C          25.4365   27.5118   -0.6785 C.2       3 UNK         0.5044 
     26 O          25.3696   28.4101    0.1667 O.2       3 UNK        -0.5152 
     27 CA         26.4724   27.6150   -1.8087 C.3       3 UNK         0.0319 
     28 CB         26.1756   28.8193   -2.7161 C.3       3 UNK        -0.2001 
     29 N          27.8325   27.7237   -1.2740 N.am      3 UNK        -0.4354 
     30 C          28.4099   26.8463   -0.4399 C.2       2 UNK         0.4964 
     31 O          27.8717   25.8085   -0.0463 O.2       2 UNK        -0.5047 
     32 CA         29.8040   27.2137    0.0902 C.3       2 UNK         0.0288 
     33 CB         29.7259   27.5228    1.5929 C.3       2 UNK        -0.2113 
     34 N          30.7648   26.1336   -0.1308 N.am      2 UNK        -0.4145 
     35 C          31.1770   25.7115   -1.3341 C.2       1 UNK         0.5006 
     36 O          30.8598   26.2677   -2.3898 O.2       1 UNK        -0.5103 
     37 C          26.1983   27.4862    3.8527 C.2       5 UNK         0.5055 
     38 O          26.5047   27.6623    5.0333 O.2       5 UNK        -0.5220 
     39 N          25.6585   28.4471    3.0863 N.am      6 UNK        -0.4450 
     40 CA         25.2916   29.7863    3.5495 C.3       6 UNK         0.0367 
     41 CB         23.8966   30.1326    3.0031 C.3       6 UNK        -0.1929 
     42 C          26.3107   30.8471    3.1102 C.2       6 UNK         0.5070 
     43 O          26.4880   31.8387    3.8191 O.2       6 UNK        -0.5237 
     44 N          26.9489   30.6375    1.9511 N.am      7 UNK        -0.4739 
     45 CA         27.9891   31.5128    1.4045 C.3       7 UNK         0.0276 
     46 CB         28.1619   31.1900   -0.0886 C.3       7 UNK        -0.1927 
     47 C          29.3316   31.3761    2.1484 C.2       7 UNK         0.5013 
     48 O          29.5130   30.4610    2.9550 O.2       7 UNK        -0.5193 
     49 N          30.2681   32.2795    1.8345 N.am      8 UNK        -0.4253 
     50 CA         31.6588   32.1999    2.2811 C.3       8 UNK         0.0242 
     51 CB         32.3291   33.5723    2.1049 C.3       8 UNK        -0.2000 
     52 C          32.4207   31.1204    1.4930 C.2       8 UNK         0.4948 
     53 O          32.2236   30.9969    0.2817 O.2       8 UNK        -0.5275 
     54 N          33.2962   30.3950    2.1936 N.am      9 UNK        -0.4246 
     55 CA         34.2002   29.3653    1.6841 C.3       9 UNK         0.0261 
     56 CB         33.4296   28.1394    1.1375 C.3       9 UNK        -0.1959 
     57 C          35.1650   29.0347    2.8329 C.2       9 UNK         0.5033 
     58 O          35.6612   29.9625    3.4766 O.2       9 UNK        -0.5390 
     59 N          35.3681   27.7409    3.1245 N.am      10 UNK        -0.4215 
     60 CA         36.2014   27.2195    4.2186 C.3       10 UNK         0.0240 
     61 CB         36.1685   25.6825    4.1821 C.3       10 UNK        -0.1982 
     62 C          35.8276   27.7265    5.6281 C.2       10 UNK         0.4970 
     63 O          36.6818   27.7100    6.5151 O.2       10 UNK        -0.4916 
     64 N          34.5796   28.1805    5.8033 N.am      11 UNK        -0.4279 
     65 CA         34.0841   28.8608    7.0100 C.3       11 UNK         0.1003 
     66 C          34.6857   30.2793    7.2422 C.2       11 UNK         0.5709 
     67 N          35.3409   30.9013    6.2673 N.am      11 UNK        -0.7358 
     68 O          34.5574   30.8248    8.3357 O.2       11 UNK        -0.4999 
     69 C69        32.5324   28.9165    7.0456 C.3       12 UNK        -0.0954 
     70 S70        31.7662   27.2675    6.9083 S.3       12 UNK        -0.2268 
     71 C71        31.0464   27.3428    5.2396 C.3       12 UNK         0.0203 
     72 H72        29.7813   22.5085   -4.6475 H         1 UNK         0.0888 
     73 H73        31.5359   22.3314   -4.7117 H         1 UNK         0.0888 
     74 H74        30.5553   21.1032   -3.9096 H         1 UNK         0.0888 
     75 H75        32.5491   23.7029   -3.2849 H         1 UNK         0.3017 
     76 H76        33.1143   24.9112   -1.5816 H         1 UNK         0.0873 
     77 H77        31.2405   23.5366    0.4063 H         1 UNK         0.0745 
     78 H78        32.5815   22.6664   -0.2723 H         1 UNK         0.0745 
     79 H79        33.8639   23.4853    3.2865 H         1 UNK         0.0705 
     80 H80        32.7991   22.4401    2.3851 H         1 UNK         0.0705 
     81 H81        32.8461   25.9490    3.7607 H         1 UNK         0.1334 
     82 H82        28.9481   25.6255    5.4980 H         1 UNK         0.1417 
     83 H83        30.5530   22.3716    3.2009 H         1 UNK         0.1562 
     84 H84        28.0538   23.2393    5.7108 H         1 UNK         0.0748 
     85 H85        28.6329   22.0096    4.6283 H         1 UNK         0.0748 
     86 H86        26.7591   25.1426    5.1606 H         1 UNK         0.0940 
     87 H87        25.2343   24.7518    4.4413 H         1 UNK         0.0940 
     88 H88        27.4912   26.1214    2.9015 H         1 UNK         0.0703 
     89 H89        26.2560   25.8487    1.1224 H         1 UNK         0.3081 
     90 H90        23.4960   24.9180    0.1468 H         1 UNK         0.0719 
     91 H91        22.6934   27.8420    0.6139 H         1 UNK         0.0809 
     92 H92        22.0916   26.8283   -0.6972 H         1 UNK         0.0809 
     93 H93        21.7172   26.4245    0.9680 H         1 UNK         0.0809 
     94 H94        24.9154   25.6849   -1.3586 H         1 UNK         0.2990 
     95 H95        26.4320   26.7103   -2.4190 H         1 UNK         0.0690 
     96 H96        26.8904   28.8870   -3.5364 H         1 UNK         0.0788 
     97 H97        26.2042   29.7596   -2.1655 H         1 UNK         0.0788 
     98 H98        25.1825   28.7352   -3.1596 H         1 UNK         0.0788 
     99 H99        28.3514   28.5433   -1.5511 H         1 UNK         0.2993 
    100 H100       30.1621   28.1051   -0.4296 H         1 UNK         0.0949 
    101 H101       29.6253   26.6128    2.1834 H         1 UNK         0.0767 
    102 H102       30.6107   28.0526    1.9412 H         1 UNK         0.0767 
    103 H103       28.8684   28.1561    1.8233 H         1 UNK         0.0767 
    104 H104       31.0685   25.6198    0.6844 H         1 UNK         0.3013 
    105 H105       25.4629   28.2449    2.1096 H         1 UNK         0.3121 
    106 H106       25.2409   29.8074    4.6403 H         1 UNK         0.0774 
    107 H107       23.5774   31.1187    3.3432 H         1 UNK         0.0815 
    108 H108       23.8799   30.1412    1.9122 H         1 UNK         0.0815 
    109 H109       23.1499   29.4143    3.3425 H         1 UNK         0.0815 
    110 H110       26.7223   29.8083    1.4192 H         1 UNK         0.2987 
    111 H111       27.6528   32.5475    1.5027 H         1 UNK         0.0949 
    112 H112       28.5598   30.1870   -0.2334 H         1 UNK         0.0806 
    113 H113       27.2139   31.2630   -0.6211 H         1 UNK         0.0806 
    114 H114       28.8526   31.8837   -0.5694 H         1 UNK         0.0806 
    115 H115       30.0607   32.9758    1.1336 H         1 UNK         0.3010 
    116 H116       31.6687   31.9438    3.3433 H         1 UNK         0.0829 
    117 H117       31.8110   34.3437    2.6752 H         1 UNK         0.0813 
    118 H118       33.3618   33.5499    2.4559 H         1 UNK         0.0813 
    119 H119       32.3477   33.8822    1.0591 H         1 UNK         0.0813 
    120 H120       33.4535   30.6298    3.1651 H         1 UNK         0.3038 
    121 H121       34.7925   29.7997    0.8766 H         1 UNK         0.0769 
    122 H122       32.8616   27.6326    1.9168 H         1 UNK         0.0811 
    123 H123       34.1098   27.4132    0.6912 H         1 UNK         0.0811 
    124 H124       32.7296   28.4207    0.3515 H         1 UNK         0.0811 
    125 H125       34.9285   27.0512    2.5322 H         1 UNK         0.3204 
    126 H126       37.2252   27.5455    4.0243 H         1 UNK         0.0748 
    127 H127       36.8348   25.2602    4.9357 H         1 UNK         0.0771 
    128 H128       35.1687   25.2961    4.3817 H         1 UNK         0.0771 
    129 H129       36.4925   25.2971    3.2150 H         1 UNK         0.0771 
    130 H130       33.9435   28.1444    5.0246 H         1 UNK         0.2980 
    131 H131       34.4059   28.2609    7.8634 H         1 UNK         0.0545 
    132 H132       35.7251   31.8155    6.4439 H         1 UNK         0.3459 
    133 H133       35.4670   30.4722    5.3561 H         1 UNK         0.3459 
    134 H134       32.1506   29.5694    6.2586 H         1 UNK         0.0616 
    135 H135       32.1917   29.3511    7.9872 H         1 UNK         0.0616 
    136 H136       30.0788   27.8460    5.2817 H         1 UNK         0.0634 
    137 H137       31.6765   27.9437    4.5821 H         1 UNK         0.0634 
@<TRIPOS>BOND
     1    1    2 1    
     2    1   72 1    
     3    1   73 1    
     4    1   74 1    
     5    2    3 2    
     6    2    4 am   BACKBONE|DICT|INTERRES
     7    4    5 1    
     8    4   75 1    
     9    5    6 1    
    10    5   35 1    
    11    5   76 1    
    12    6    7 1    
    13    6   77 1    
    14    6   78 1    
    15    7    8 1    
    16    8    9 1    
    17    8   79 1    
    18    8   80 1    
    19    9   10 ar   
    20    9   14 ar   
    21   10   11 ar   
    22   10   81 1    
    23   11   12 ar   
    24   11   71 1    
    25   12   13 ar   
    26   12   82 1    
    27   13   14 ar   
    28   13   15 1    
    29   14   83 1    
    30   15   16 1    
    31   15   84 1    
    32   15   85 1    
    33   16   17 1    
    34   17   18 1    
    35   17   86 1    
    36   17   87 1    
    37   18   19 1    
    38   18   37 1    
    39   18   88 1    
    40   19   20 am   BACKBONE|DICT|INTERRES
    41   19   89 1    
    42   20   21 2    
    43   20   22 1    
    44   22   23 1    
    45   22   24 1    
    46   22   90 1    
    47   23   91 1    
    48   23   92 1    
    49   23   93 1    
    50   24   25 am   BACKBONE|DICT|INTERRES
    51   24   94 1    
    52   25   26 2    
    53   25   27 1    
    54   27   28 1    
    55   27   29 1    
    56   27   95 1    
    57   28   96 1    
    58   28   97 1    
    59   28   98 1    
    60   29   30 am   BACKBONE|DICT|INTERRES
    61   29   99 1    
    62   30   31 2    
    63   30   32 1    
    64   32   33 1    
    65   32   34 1    
    66   32  100 1    
    67   33  101 1    
    68   33  102 1    
    69   33  103 1    
    70   34   35 am   BACKBONE|DICT|INTERRES
    71   34  104 1    
    72   35   36 2    
    73   37   38 2    
    74   37   39 am   BACKBONE|DICT|INTERRES
    75   39   40 1    
    76   39  105 1    
    77   40   41 1    
    78   40   42 1    
    79   40  106 1    
    80   41  107 1    
    81   41  108 1    
    82   41  109 1    
    83   42   43 2    
    84   42   44 am   BACKBONE|DICT|INTERRES
    85   44   45 1    
    86   44  110 1    
    87   45   46 1    
    88   45   47 1    
    89   45  111 1    
    90   46  112 1    
    91   46  113 1    
    92   46  114 1    
    93   47   48 2    
    94   47   49 am   BACKBONE|DICT|INTERRES
    95   49   50 1    
    96   49  115 1    
    97   50   51 1    
    98   50   52 1    
    99   50  116 1    
   100   51  117 1    
   101   51  118 1    
   102   51  119 1    
   103   52   53 2    
   104   52   54 am   BACKBONE|DICT|INTERRES
   105   54   55 1    
   106   54  120 1    
   107   55   56 1    
   108   55   57 1    
   109   55  121 1    
   110   56  122 1    
   111   56  123 1    
   112   56  124 1    
   113   57   58 2    
   114   57   59 am   BACKBONE|DICT|INTERRES
   115   59   60 1    
   116   59  125 1    
   117   60   61 1    
   118   60   62 1    
   119   60  126 1    
   120   61  127 1    
   121   61  128 1    
   122   61  129 1    
   123   62   63 2    
   124   62   64 am   BACKBONE|DICT|INTERRES
   125   64   65 1    
   126   64  130 1    
   127   65   66 1    
   128   65   69 1    
   129   65  131 1    
   130   66   67 am   BACKBONE|DICT|INTERRES
   131   66   68 2    
   132   67  132 1    
   133   67  133 1    
   134   69   70 1    
   135   69  134 1    
   136   69  135 1    
   137   70   71 1    
   138   71  136 1    
   139   71  137 1    
@<TRIPOS>SUBSTRUCTURE
     1 UNK         1 GROUP             0       ****    0 ROOT    
