@<TRIPOS>MOLECULE
3R136
137   139    1
SMALL
USER_CHARGES


@<TRIPOS>ATOM
      1 CA         31.3306   24.2750   -3.2058 C.3       0 UNK        -0.1979 
      2 C          30.3868   24.0298   -2.0397 C.2       0 UNK         0.4864 
      3 O          29.4149   24.7676   -1.8746 O.2       0 UNK        -0.5359 
      4 N          30.6478   22.9877   -1.2388 N.am      1 UNK        -0.4318 
      5 CA         29.9355   22.6109   -0.0040 C.3       1 UNK         0.0824 
      6 C6         30.6461   21.4306    0.7021 C.3       12 UNK        -0.0944 
      7 S7         32.3052   21.9026    1.3008 S.3       12 UNK        -0.2672 
      8 C8         32.2053   21.5003    3.0753 C.3       12 UNK         0.0333 
      9 C9         31.4806   22.5681    3.8861 C.ar      12 UNK        -0.0807 
     10 C10        32.2022   23.6075    4.4819 C.ar      12 UNK        -0.0894 
     11 C11        31.5573   24.5501    5.2900 C.ar      12 UNK        -0.0804 
     12 C12        30.1763   24.4604    5.4863 C.ar      12 UNK        -0.0824 
     13 C13        29.4430   23.4317    4.8895 C.ar      12 UNK        -0.0762 
     14 C14        30.1003   22.4875    4.0947 C.ar      12 UNK        -0.0782 
     15 C15        27.9458   23.3108    5.1224 C.3       12 UNK         0.0230 
     16 S16        27.0119   23.9593    3.7048 S.3       12 UNK        -0.2608 
     17 C17        26.4992   25.6117    4.2814 C.3       12 UNK        -0.0989 
     18 CA         27.5040   26.7571    3.9844 C.3       5 UNK         0.0716 
     19 N          28.0599   26.6793    2.6295 N.am      5 UNK        -0.4135 
     20 C          28.9371   27.5348    2.0872 C.2       4 UNK         0.5031 
     21 O          29.4521   28.4669    2.7016 O.2       4 UNK        -0.5229 
     22 CA         29.2469   27.3788    0.5881 C.3       4 UNK         0.0329 
     23 CB         30.6370   26.7543    0.3910 C.3       4 UNK        -0.2001 
     24 N          28.2478   26.6334   -0.1922 N.am      4 UNK        -0.4303 
     25 C          26.9460   26.9479   -0.3032 C.2       3 UNK         0.5044 
     26 O          26.4140   27.8599    0.3335 O.2       3 UNK        -0.5152 
     27 CA         26.0777   26.1163   -1.2615 C.3       3 UNK         0.0319 
     28 CB         25.9692   26.8152   -2.6267 C.3       3 UNK        -0.2001 
     29 N          26.5717   24.7485   -1.4575 N.am      3 UNK        -0.4354 
     30 C          25.8040   23.6469   -1.4267 C.2       2 UNK         0.4964 
     31 O          24.5929   23.6640   -1.2030 O.2       2 UNK        -0.5047 
     32 CA         26.4804   22.2882   -1.7081 C.3       2 UNK         0.0288 
     33 CB         26.2819   21.8858   -3.1788 C.3       2 UNK        -0.2113 
     34 N          27.9112   22.2809   -1.4014 N.am      2 UNK        -0.4145 
     35 C          28.4213   22.3304   -0.1633 C.2       1 UNK         0.5006 
     36 O          27.7325   22.1909    0.8468 O.2       1 UNK        -0.5103 
     37 C          26.8119   28.1091    4.2747 C.2       5 UNK         0.5055 
     38 O          26.8293   28.5623    5.4200 O.2       5 UNK        -0.5220 
     39 N          26.1982   28.7069    3.2421 N.am      6 UNK        -0.4450 
     40 CA         25.4567   29.9660    3.3169 C.3       6 UNK         0.0367 
     41 CB         24.1444   29.7982    2.5307 C.3       6 UNK        -0.1929 
     42 C          26.2574   31.1655    2.7776 C.2       6 UNK         0.5070 
     43 O          25.7387   32.2827    2.8083 O.2       6 UNK        -0.5237 
     44 N          27.4781   30.9410    2.2712 N.am      7 UNK        -0.4739 
     45 CA         28.3337   31.9908    1.7157 C.3       7 UNK         0.0276 
     46 CB         29.3709   31.3582    0.7732 C.3       7 UNK        -0.1927 
     47 C          29.0376   32.7863    2.8247 C.2       7 UNK         0.5013 
     48 O          29.3887   32.2220    3.8637 O.2       7 UNK        -0.5193 
     49 N          29.2914   34.0725    2.5572 N.am      8 UNK        -0.4253 
     50 CA         30.0954   34.9575    3.4023 C.3       8 UNK         0.0242 
     51 CB         29.5825   36.4020    3.2469 C.3       8 UNK        -0.2000 
     52 C          31.5834   34.8101    3.0359 C.2       8 UNK         0.4948 
     53 O          32.1920   35.7521    2.5240 O.2       8 UNK        -0.5275 
     54 N          32.1288   33.6110    3.2605 N.am      9 UNK        -0.4246 
     55 CA         33.4946   33.2203    2.9281 C.3       9 UNK         0.0261 
     56 CB         33.5483   32.7354    1.4667 C.3       9 UNK        -0.1959 
     57 C          33.9463   32.1151    3.8879 C.2       9 UNK         0.5033 
     58 O          33.1066   31.4620    4.5137 O.2       9 UNK        -0.5390 
     59 N          35.2656   31.9105    3.9718 N.am      10 UNK        -0.4215 
     60 CA         35.8943   30.8456    4.7515 C.3       10 UNK         0.0240 
     61 CB         37.3489   31.2423    5.0661 C.3       10 UNK        -0.1982 
     62 C          35.8073   29.5112    3.9917 C.2       10 UNK         0.4970 
     63 O          36.7268   29.1701    3.2454 O.2       10 UNK        -0.4916 
     64 N          34.6897   28.7993    4.1739 N.am      11 UNK        -0.4279 
     65 CA         34.4208   27.4784    3.5826 C.3       11 UNK         0.1003 
     66 C          35.3151   26.3148    4.1042 C.2       11 UNK         0.5709 
     67 N          36.0338   26.4693    5.2103 N.am      11 UNK        -0.7358 
     68 O          35.3632   25.2543    3.4866 O.2       11 UNK        -0.4999 
     69 C69        32.9091   27.1220    3.6288 C.3       12 UNK        -0.0954 
     70 S70        32.1308   27.2832    5.2746 S.3       12 UNK        -0.2268 
     71 C71        32.3590   25.6299    6.0018 C.3       12 UNK         0.0203 
     72 H72        31.7772   25.2652   -3.1210 H         1 UNK         0.0888 
     73 H73        32.1352   23.5409   -3.2413 H         1 UNK         0.0888 
     74 H74        30.7835   24.2272   -4.1468 H         1 UNK         0.0888 
     75 H75        31.4616   22.4224   -1.4367 H         1 UNK         0.3017 
     76 H76        29.9883   23.4736    0.6627 H         1 UNK         0.0873 
     77 H77        30.7496   20.5841    0.0208 H         1 UNK         0.0745 
     78 H78        30.0574   21.0595    1.5412 H         1 UNK         0.0745 
     79 H79        31.7258   20.5292    3.2080 H         1 UNK         0.0705 
     80 H80        33.2209   21.3825    3.4564 H         1 UNK         0.0705 
     81 H81        33.2724   23.6674    4.3358 H         1 UNK         0.1334 
     82 H82        29.6781   25.1838    6.1172 H         1 UNK         0.1417 
     83 H83        29.5306   21.6826    3.6518 H         1 UNK         0.1562 
     84 H84        27.6520   23.8148    6.0441 H         1 UNK         0.0748 
     85 H85        27.6853   22.2602    5.2592 H         1 UNK         0.0748 
     86 H86        26.2765   25.5703    5.3494 H         1 UNK         0.0940 
     87 H87        25.5424   25.8124    3.7939 H         1 UNK         0.0940 
     88 H88        28.3463   26.6678    4.6724 H         1 UNK         0.0703 
     89 H89        27.7053   25.9289    2.0551 H         1 UNK         0.3081 
     90 H90        29.2750   28.3859    0.1694 H         1 UNK         0.0719 
     91 H91        31.4020   27.3395    0.9009 H         1 UNK         0.0809 
     92 H92        30.6858   25.7394    0.7852 H         1 UNK         0.0809 
     93 H93        30.9143   26.7261   -0.6624 H         1 UNK         0.0809 
     94 H94        28.6250   25.8996   -0.7897 H         1 UNK         0.2990 
     95 H95        25.0813   26.0894   -0.8153 H         1 UNK         0.0690 
     96 H96        25.2726   26.2936   -3.2832 H         1 UNK         0.0788 
     97 H97        26.9350   26.8622   -3.1317 H         1 UNK         0.0788 
     98 H98        25.6060   27.8381   -2.5162 H         1 UNK         0.0788 
     99 H99        27.5632   24.6475   -1.6608 H         1 UNK         0.2993 
    100 H100       25.9905   21.5422   -1.0782 H         1 UNK         0.0949 
    101 H101       26.6931   20.8959   -3.3785 H         1 UNK         0.0767 
    102 H102       25.2217   21.8522   -3.4343 H         1 UNK         0.0767 
    103 H103       26.7589   22.5927   -3.8591 H         1 UNK         0.0767 
    104 H104       28.5450   22.4088   -2.1767 H         1 UNK         0.3013 
    105 H105       26.2594   28.2841    2.3194 H         1 UNK         0.3121 
    106 H106       25.2024   30.1918    4.3546 H         1 UNK         0.0774 
    107 H107       24.3312   29.5958    1.4751 H         1 UNK         0.0815 
    108 H108       23.5328   30.6997    2.5875 H         1 UNK         0.0815 
    109 H109       23.5461   28.9784    2.9285 H         1 UNK         0.0815 
    110 H110       27.8935   30.0235    2.3744 H         1 UNK         0.2987 
    111 H111       27.7122   32.6740    1.1318 H         1 UNK         0.0949 
    112 H112       30.0403   30.6809    1.3050 H         1 UNK         0.0806 
    113 H113       28.8888   30.7996   -0.0290 H         1 UNK         0.0806 
    114 H114       29.9924   32.1230    0.3054 H         1 UNK         0.0806 
    115 H115       29.0054   34.4492    1.6645 H         1 UNK         0.3010 
    116 H116       29.9820   34.6746    4.4514 H         1 UNK         0.0829 
    117 H117       30.1552   37.0881    3.8724 H         1 UNK         0.0813 
    118 H118       29.6629   36.7543    2.2177 H         1 UNK         0.0813 
    119 H119       28.5383   36.4857    3.5489 H         1 UNK         0.0813 
    120 H120       31.5804   32.8885    3.7184 H         1 UNK         0.3038 
    121 H121       34.1593   34.0774    3.0575 H         1 UNK         0.0769 
    122 H122       33.2450   33.5224    0.7760 H         1 UNK         0.0811 
    123 H123       32.8926   31.8786    1.3046 H         1 UNK         0.0811 
    124 H124       34.5576   32.4327    1.1855 H         1 UNK         0.0811 
    125 H125       35.8816   32.4692    3.3981 H         1 UNK         0.3204 
    126 H126       35.3680   30.7357    5.7027 H         1 UNK         0.0748 
    127 H127       37.8514   30.4593    5.6357 H         1 UNK         0.0771 
    128 H128       37.9323   31.4112    4.1599 H         1 UNK         0.0771 
    129 H129       37.3898   32.1530    5.6640 H         1 UNK         0.0771 
    130 H130       33.9565   29.1771    4.7594 H         1 UNK         0.2980 
    131 H131       34.6778   27.5658    2.5251 H         1 UNK         0.0545 
    132 H132       36.6146   25.7109    5.5306 H         1 UNK         0.3459 
    133 H133       35.9987   27.3321    5.7278 H         1 UNK         0.3459 
    134 H134       32.7182   26.1302    3.2166 H         1 UNK         0.0616 
    135 H135       32.3730   27.8107    2.9754 H         1 UNK         0.0616 
    136 H136       33.4188   25.3768    6.0214 H         1 UNK         0.0634 
    137 H137       32.0465   25.6705    7.0462 H         1 UNK         0.0634 
@<TRIPOS>BOND
     1    1    2 1    
     2    1   72 1    
     3    1   73 1    
     4    1   74 1    
     5    2    3 2    
     6    2    4 am   BACKBONE|DICT|INTERRES
     7    4    5 1    
     8    4   75 1    
     9    5    6 1    
    10    5   35 1    
    11    5   76 1    
    12    6    7 1    
    13    6   77 1    
    14    6   78 1    
    15    7    8 1    
    16    8    9 1    
    17    8   79 1    
    18    8   80 1    
    19    9   10 ar   
    20    9   14 ar   
    21   10   11 ar   
    22   10   81 1    
    23   11   12 ar   
    24   11   71 1    
    25   12   13 ar   
    26   12   82 1    
    27   13   14 ar   
    28   13   15 1    
    29   14   83 1    
    30   15   16 1    
    31   15   84 1    
    32   15   85 1    
    33   16   17 1    
    34   17   18 1    
    35   17   86 1    
    36   17   87 1    
    37   18   19 1    
    38   18   37 1    
    39   18   88 1    
    40   19   20 am   BACKBONE|DICT|INTERRES
    41   19   89 1    
    42   20   21 2    
    43   20   22 1    
    44   22   23 1    
    45   22   24 1    
    46   22   90 1    
    47   23   91 1    
    48   23   92 1    
    49   23   93 1    
    50   24   25 am   BACKBONE|DICT|INTERRES
    51   24   94 1    
    52   25   26 2    
    53   25   27 1    
    54   27   28 1    
    55   27   29 1    
    56   27   95 1    
    57   28   96 1    
    58   28   97 1    
    59   28   98 1    
    60   29   30 am   BACKBONE|DICT|INTERRES
    61   29   99 1    
    62   30   31 2    
    63   30   32 1    
    64   32   33 1    
    65   32   34 1    
    66   32  100 1    
    67   33  101 1    
    68   33  102 1    
    69   33  103 1    
    70   34   35 am   BACKBONE|DICT|INTERRES
    71   34  104 1    
    72   35   36 2    
    73   37   38 2    
    74   37   39 am   BACKBONE|DICT|INTERRES
    75   39   40 1    
    76   39  105 1    
    77   40   41 1    
    78   40   42 1    
    79   40  106 1    
    80   41  107 1    
    81   41  108 1    
    82   41  109 1    
    83   42   43 2    
    84   42   44 am   BACKBONE|DICT|INTERRES
    85   44   45 1    
    86   44  110 1    
    87   45   46 1    
    88   45   47 1    
    89   45  111 1    
    90   46  112 1    
    91   46  113 1    
    92   46  114 1    
    93   47   48 2    
    94   47   49 am   BACKBONE|DICT|INTERRES
    95   49   50 1    
    96   49  115 1    
    97   50   51 1    
    98   50   52 1    
    99   50  116 1    
   100   51  117 1    
   101   51  118 1    
   102   51  119 1    
   103   52   53 2    
   104   52   54 am   BACKBONE|DICT|INTERRES
   105   54   55 1    
   106   54  120 1    
   107   55   56 1    
   108   55   57 1    
   109   55  121 1    
   110   56  122 1    
   111   56  123 1    
   112   56  124 1    
   113   57   58 2    
   114   57   59 am   BACKBONE|DICT|INTERRES
   115   59   60 1    
   116   59  125 1    
   117   60   61 1    
   118   60   62 1    
   119   60  126 1    
   120   61  127 1    
   121   61  128 1    
   122   61  129 1    
   123   62   63 2    
   124   62   64 am   BACKBONE|DICT|INTERRES
   125   64   65 1    
   126   64  130 1    
   127   65   66 1    
   128   65   69 1    
   129   65  131 1    
   130   66   67 am   BACKBONE|DICT|INTERRES
   131   66   68 2    
   132   67  132 1    
   133   67  133 1    
   134   69   70 1    
   135   69  134 1    
   136   69  135 1    
   137   70   71 1    
   138   71  136 1    
   139   71  137 1    
@<TRIPOS>SUBSTRUCTURE
     1 UNK         1 GROUP             0       ****    0 ROOT    
