@<TRIPOS>MOLECULE
3R136
137   139    1
SMALL
USER_CHARGES


@<TRIPOS>ATOM
      1 CA         26.4313   18.8127    1.5856 C.3       0 UNK        -0.1979 
      2 C          26.7127   20.1180    0.8561 C.2       0 UNK         0.4864 
      3 O          25.7792   20.8596    0.5484 O.2       0 UNK        -0.5359 
      4 N          27.9910   20.3972    0.5693 N.am      1 UNK        -0.4318 
      5 CA         28.4533   21.6311   -0.0766 C.3       1 UNK         0.0824 
      6 C6         29.8436   21.4532   -0.7348 C.3       12 UNK        -0.0944 
      7 S7         31.1358   20.8545    0.4121 S.3       12 UNK        -0.2672 
      8 C8         32.6330   21.6112   -0.2913 C.3       12 UNK         0.0333 
      9 C9         32.7161   23.1043   -0.0062 C.ar      12 UNK        -0.0807 
     10 C10        33.1109   23.5552    1.2566 C.ar      12 UNK        -0.0894 
     11 C11        33.2435   24.9216    1.5236 C.ar      12 UNK        -0.0804 
     12 C12        32.9746   25.8390    0.4977 C.ar      12 UNK        -0.0824 
     13 C13        32.5630   25.4041   -0.7661 C.ar      12 UNK        -0.0762 
     14 C14        32.4382   24.0341   -1.0119 C.ar      12 UNK        -0.0782 
     15 C15        32.2764   26.4089   -1.8776 C.3       12 UNK         0.0230 
     16 S16        31.0183   27.6475   -1.4221 S.3       12 UNK        -0.2608 
     17 C17        29.5951   26.5830   -1.0045 C.3       12 UNK        -0.0989 
     18 CA         28.3755   27.3873   -0.4943 C.3       5 UNK         0.0716 
     19 N          27.2113   26.5289   -0.3108 N.am      5 UNK        -0.4135 
     20 C          25.9418   26.9340   -0.4377 C.2       4 UNK         0.5031 
     21 O          25.6060   27.9970   -0.9621 O.2       4 UNK        -0.5229 
     22 CA         24.8710   26.0285    0.1932 C.3       4 UNK         0.0329 
     23 CB         24.7124   24.7104   -0.5830 C.3       4 UNK        -0.2001 
     24 N          25.1829   25.7481    1.5965 N.am      4 UNK        -0.4303 
     25 C          25.1957   26.6573    2.5827 C.2       3 UNK         0.5044 
     26 O          24.7934   27.8132    2.4463 O.2       3 UNK        -0.5152 
     27 CA         25.7757   26.2325    3.9462 C.3       3 UNK         0.0319 
     28 CB         24.7000   25.5920    4.8450 C.3       3 UNK        -0.2001 
     29 N          26.9846   25.4019    3.8498 N.am      3 UNK        -0.4354 
     30 C          27.1074   24.1538    3.3851 C.2       2 UNK         0.4964 
     31 O          26.1519   23.4464    3.0568 O.2       2 UNK        -0.5047 
     32 CA         28.5436   23.6229    3.2350 C.3       2 UNK         0.0288 
     33 CB         29.0407   23.0083    4.5531 C.3       2 UNK        -0.2113 
     34 N          28.6431   22.6187    2.1734 N.am      2 UNK        -0.4145 
     35 C          28.4117   22.8484    0.8716 C.2       1 UNK         0.5006 
     36 O          28.1496   23.9602    0.4106 O.2       1 UNK        -0.5103 
     37 C          28.6599   28.0496    0.8657 C.2       5 UNK         0.5055 
     38 O          28.8102   27.3393    1.8621 O.2       5 UNK        -0.5220 
     39 N          28.7337   29.3856    0.8782 N.am      6 UNK        -0.4450 
     40 CA         29.1067   30.1740    2.0549 C.3       6 UNK         0.0367 
     41 CB         28.2299   31.4343    2.1180 C.3       6 UNK        -0.1929 
     42 C          30.5918   30.5698    2.0470 C.2       6 UNK         0.5070 
     43 O          31.1165   30.9220    3.1054 O.2       6 UNK        -0.5237 
     44 N          31.2427   30.5275    0.8735 N.am      7 UNK        -0.4739 
     45 CA         32.5907   31.0449    0.6017 C.3       7 UNK         0.0276 
     46 CB         33.6623   30.1688    1.2884 C.3       7 UNK        -0.1927 
     47 C          32.6807   32.5464    0.9461 C.2       7 UNK         0.5013 
     48 O          31.7586   33.2939    0.6123 O.2       7 UNK        -0.5193 
     49 N          33.7395   32.9665    1.6492 N.am      8 UNK        -0.4253 
     50 CA         33.9061   34.3197    2.1900 C.3       8 UNK         0.0242 
     51 CB         35.4120   34.6294    2.2937 C.3       8 UNK        -0.2000 
     52 C          33.1699   34.4862    3.5376 C.2       8 UNK         0.4948 
     53 O          33.7613   34.9850    4.4967 O.2       8 UNK        -0.5275 
     54 N          31.9046   34.0377    3.5887 N.am      9 UNK        -0.4246 
     55 CA         31.0265   33.9482    4.7645 C.3       9 UNK         0.0261 
     56 CB         30.5976   35.3546    5.2339 C.3       9 UNK        -0.1959 
     57 C          31.6488   33.0955    5.8898 C.2       9 UNK         0.5033 
     58 O          31.7062   33.5322    7.0418 O.2       9 UNK        -0.5390 
     59 N          32.1325   31.9056    5.5142 N.am      10 UNK        -0.4215 
     60 CA         32.8980   30.9962    6.3700 C.3       10 UNK         0.0240 
     61 CB         34.3775   31.0421    5.9505 C.3       10 UNK        -0.1982 
     62 C          32.3753   29.5530    6.3252 C.2       10 UNK         0.4970 
     63 O          32.4670   28.8604    7.3395 O.2       10 UNK        -0.4916 
     64 N          31.8464   29.1197    5.1742 N.am      11 UNK        -0.4279 
     65 CA         31.3217   27.7615    4.9514 C.3       11 UNK         0.1003 
     66 C          29.7967   27.6334    5.2259 C.2       11 UNK         0.5709 
     67 N          29.0944   28.6920    5.6147 N.am      11 UNK        -0.7358 
     68 O          29.2425   26.5443    5.1109 O.2       11 UNK        -0.4999 
     69 C69        31.7039   27.2299    3.5447 C.3       12 UNK        -0.0954 
     70 S70        33.5112   27.1109    3.3294 S.3       12 UNK        -0.2268 
     71 C71        33.7180   25.3442    2.9174 C.3       12 UNK         0.0203 
     72 H72        25.9438   19.0146    2.5390 H         1 UNK         0.0888 
     73 H73        25.7691   18.1851    0.9898 H         1 UNK         0.0888 
     74 H74        27.3438   18.2505    1.7835 H         1 UNK         0.0888 
     75 H75        28.7195   19.7448    0.8251 H         1 UNK         0.3017 
     76 H76        27.7508   21.8570   -0.8824 H         1 UNK         0.0873 
     77 H77        30.1576   22.3890   -1.1987 H         1 UNK         0.0745 
     78 H78        29.7686   20.7343   -1.5521 H         1 UNK         0.0745 
     79 H79        32.6690   21.4154   -1.3643 H         1 UNK         0.0705 
     80 H80        33.5069   21.1163    0.1350 H         1 UNK         0.0705 
     81 H81        33.3292   22.8337    2.0326 H         1 UNK         0.1334 
     82 H82        33.0792   26.8994    0.6679 H         1 UNK         0.1417 
     83 H83        32.1375   23.6892   -1.9919 H         1 UNK         0.1562 
     84 H84        31.9500   25.9014   -2.7867 H         1 UNK         0.0748 
     85 H85        33.2023   26.9268   -2.1312 H         1 UNK         0.0748 
     86 H86        29.9040   25.8460   -0.2603 H         1 UNK         0.0940 
     87 H87        29.3210   26.0169   -1.8961 H         1 UNK         0.0940 
     88 H88        28.1428   28.1564   -1.2342 H         1 UNK         0.0703 
     89 H89        27.4075   25.6300    0.1259 H         1 UNK         0.3081 
     90 H90        23.9179   26.5604    0.1583 H         1 UNK         0.0719 
     91 H91        24.4901   24.9011   -1.6337 H         1 UNK         0.0809 
     92 H92        25.6150   24.0999   -0.5452 H         1 UNK         0.0809 
     93 H93        23.8933   24.1132   -0.1821 H         1 UNK         0.0809 
     94 H94        25.5070   24.8130    1.8255 H         1 UNK         0.2990 
     95 H95        26.1051   27.1489    4.4386 H         1 UNK         0.0690 
     96 H96        25.1046   25.3326    5.8233 H         1 UNK         0.0788 
     97 H97        24.2798   24.6878    4.4041 H         1 UNK         0.0788 
     98 H98        23.8725   26.2835    5.0086 H         1 UNK         0.0788 
     99 H99        27.8436   25.8817    4.1181 H         1 UNK         0.2993 
    100 H100       29.1933   24.4596    2.9648 H         1 UNK         0.0949 
    101 H101       29.0084   23.7401    5.3615 H         1 UNK         0.0767 
    102 H102       28.4288   22.1581    4.8575 H         1 UNK         0.0767 
    103 H103       30.0733   22.6691    4.4675 H         1 UNK         0.0767 
    104 H104       28.8270   21.6698    2.4610 H         1 UNK         0.3013 
    105 H105       28.5563   29.8947    0.0238 H         1 UNK         0.3121 
    106 H106       28.9268   29.5973    2.9636 H         1 UNK         0.0774 
    107 H107       28.4574   32.0231    3.0076 H         1 UNK         0.0815 
    108 H108       28.3832   32.0800    1.2522 H         1 UNK         0.0815 
    109 H109       27.1714   31.1775    2.1642 H         1 UNK         0.0815 
    110 H110       30.7332   30.2084    0.0628 H         1 UNK         0.2987 
    111 H111       32.7415   30.9716   -0.4764 H         1 UNK         0.0949 
    112 H112       34.6700   30.4657    0.9961 H         1 UNK         0.0806 
    113 H113       33.5490   29.1265    0.9956 H         1 UNK         0.0806 
    114 H114       33.6010   30.2114    2.3764 H         1 UNK         0.0806 
    115 H115       34.4353   32.2860    1.9182 H         1 UNK         0.3010 
    116 H116       33.4681   35.0411    1.4966 H         1 UNK         0.0829 
    117 H117       35.9054   34.5303    1.3267 H         1 UNK         0.0813 
    118 H118       35.5790   35.6519    2.6354 H         1 UNK         0.0813 
    119 H119       35.9138   33.9639    2.9974 H         1 UNK         0.0813 
    120 H120       31.5297   33.6454    2.7321 H         1 UNK         0.3038 
    121 H121       30.1287   33.4196    4.4408 H         1 UNK         0.0769 
    122 H122       29.8700   35.2904    6.0439 H         1 UNK         0.0811 
    123 H123       30.1325   35.9178    4.4250 H         1 UNK         0.0811 
    124 H124       31.4441   35.9346    5.6030 H         1 UNK         0.0811 
    125 H125       31.9565   31.6111    4.5549 H         1 UNK         0.3204 
    126 H126       32.8304   31.3194    7.4109 H         1 UNK         0.0748 
    127 H127       34.9838   30.3880    6.5787 H         1 UNK         0.0771 
    128 H128       34.5138   30.7222    4.9166 H         1 UNK         0.0771 
    129 H129       34.7828   32.0500    6.0444 H         1 UNK         0.0771 
    130 H130       31.7544   29.7531    4.3868 H         1 UNK         0.2980 
    131 H131       31.7866   27.0872    5.6728 H         1 UNK         0.0545 
    132 H132       28.1125   28.5866    5.8105 H         1 UNK         0.3459 
    133 H133       29.5429   29.5840    5.7408 H         1 UNK         0.3459 
    134 H134       31.2599   26.2486    3.3672 H         1 UNK         0.0616 
    135 H135       31.3115   27.8797    2.7635 H         1 UNK         0.0616 
    136 H136       34.7784   25.1031    3.0011 H         1 UNK         0.0634 
    137 H137       33.2065   24.7500    3.6764 H         1 UNK         0.0634 
@<TRIPOS>BOND
     1    1    2 1    
     2    1   72 1    
     3    1   73 1    
     4    1   74 1    
     5    2    3 2    
     6    2    4 am   BACKBONE|DICT|INTERRES
     7    4    5 1    
     8    4   75 1    
     9    5    6 1    
    10    5   35 1    
    11    5   76 1    
    12    6    7 1    
    13    6   77 1    
    14    6   78 1    
    15    7    8 1    
    16    8    9 1    
    17    8   79 1    
    18    8   80 1    
    19    9   10 ar   
    20    9   14 ar   
    21   10   11 ar   
    22   10   81 1    
    23   11   12 ar   
    24   11   71 1    
    25   12   13 ar   
    26   12   82 1    
    27   13   14 ar   
    28   13   15 1    
    29   14   83 1    
    30   15   16 1    
    31   15   84 1    
    32   15   85 1    
    33   16   17 1    
    34   17   18 1    
    35   17   86 1    
    36   17   87 1    
    37   18   19 1    
    38   18   37 1    
    39   18   88 1    
    40   19   20 am   BACKBONE|DICT|INTERRES
    41   19   89 1    
    42   20   21 2    
    43   20   22 1    
    44   22   23 1    
    45   22   24 1    
    46   22   90 1    
    47   23   91 1    
    48   23   92 1    
    49   23   93 1    
    50   24   25 am   BACKBONE|DICT|INTERRES
    51   24   94 1    
    52   25   26 2    
    53   25   27 1    
    54   27   28 1    
    55   27   29 1    
    56   27   95 1    
    57   28   96 1    
    58   28   97 1    
    59   28   98 1    
    60   29   30 am   BACKBONE|DICT|INTERRES
    61   29   99 1    
    62   30   31 2    
    63   30   32 1    
    64   32   33 1    
    65   32   34 1    
    66   32  100 1    
    67   33  101 1    
    68   33  102 1    
    69   33  103 1    
    70   34   35 am   BACKBONE|DICT|INTERRES
    71   34  104 1    
    72   35   36 2    
    73   37   38 2    
    74   37   39 am   BACKBONE|DICT|INTERRES
    75   39   40 1    
    76   39  105 1    
    77   40   41 1    
    78   40   42 1    
    79   40  106 1    
    80   41  107 1    
    81   41  108 1    
    82   41  109 1    
    83   42   43 2    
    84   42   44 am   BACKBONE|DICT|INTERRES
    85   44   45 1    
    86   44  110 1    
    87   45   46 1    
    88   45   47 1    
    89   45  111 1    
    90   46  112 1    
    91   46  113 1    
    92   46  114 1    
    93   47   48 2    
    94   47   49 am   BACKBONE|DICT|INTERRES
    95   49   50 1    
    96   49  115 1    
    97   50   51 1    
    98   50   52 1    
    99   50  116 1    
   100   51  117 1    
   101   51  118 1    
   102   51  119 1    
   103   52   53 2    
   104   52   54 am   BACKBONE|DICT|INTERRES
   105   54   55 1    
   106   54  120 1    
   107   55   56 1    
   108   55   57 1    
   109   55  121 1    
   110   56  122 1    
   111   56  123 1    
   112   56  124 1    
   113   57   58 2    
   114   57   59 am   BACKBONE|DICT|INTERRES
   115   59   60 1    
   116   59  125 1    
   117   60   61 1    
   118   60   62 1    
   119   60  126 1    
   120   61  127 1    
   121   61  128 1    
   122   61  129 1    
   123   62   63 2    
   124   62   64 am   BACKBONE|DICT|INTERRES
   125   64   65 1    
   126   64  130 1    
   127   65   66 1    
   128   65   69 1    
   129   65  131 1    
   130   66   67 am   BACKBONE|DICT|INTERRES
   131   66   68 2    
   132   67  132 1    
   133   67  133 1    
   134   69   70 1    
   135   69  134 1    
   136   69  135 1    
   137   70   71 1    
   138   71  136 1    
   139   71  137 1    
@<TRIPOS>SUBSTRUCTURE
     1 UNK         1 GROUP             0       ****    0 ROOT    
