@<TRIPOS>MOLECULE
3R136
137   139    1
SMALL
USER_CHARGES


@<TRIPOS>ATOM
      1 CA         28.9301   21.1365   -3.6195 C.3       0 UNK        -0.1979 
      2 C          28.3261   22.1027   -2.6124 C.2       0 UNK         0.4864 
      3 O          27.2826   22.6993   -2.8833 O.2       0 UNK        -0.5359 
      4 N          28.9543   22.2461   -1.4361 N.am      1 UNK        -0.4318 
      5 CA         28.5456   23.1714   -0.3685 C.3       1 UNK         0.0824 
      6 C6         29.6671   23.3855    0.6739 C.3       12 UNK        -0.0944 
      7 S7         30.0335   21.9171    1.7006 S.3       12 UNK        -0.2672 
      8 C8         31.4868   22.4723    2.6556 C.3       12 UNK         0.0333 
      9 C9         31.3369   23.8872    3.2029 C.ar      12 UNK        -0.0807 
     10 C10        32.2411   24.8818    2.8185 C.ar      12 UNK        -0.0894 
     11 C11        32.0960   26.1907    3.2840 C.ar      12 UNK        -0.0804 
     12 C12        31.0349   26.5054    4.1369 C.ar      12 UNK        -0.0824 
     13 C13        30.1183   25.5229    4.5223 C.ar      12 UNK        -0.0762 
     14 C14        30.2834   24.2116    4.0651 C.ar      12 UNK        -0.0782 
     15 C15        28.9478   25.8762    5.4284 C.3       12 UNK         0.0230 
     16 S16        27.4288   26.2174    4.4787 S.3       12 UNK        -0.2608 
     17 C17        27.8075   27.8277    3.7059 C.3       12 UNK        -0.0989 
     18 CA         27.8903   27.7356    2.1600 C.3       5 UNK         0.0716 
     19 N          26.5860   27.4140    1.5706 N.am      5 UNK        -0.4135 
     20 C          26.3908   26.8784    0.3600 C.2       4 UNK         0.5031 
     21 O          27.3029   26.5183   -0.3903 O.2       4 UNK        -0.5229 
     22 CA         24.9401   26.8079   -0.1274 C.3       4 UNK         0.0329 
     23 CB         24.5959   28.0866   -0.9192 C.3       4 UNK        -0.2001 
     24 N          24.7789   25.6171   -0.9578 N.am      4 UNK        -0.4303 
     25 C          23.6207   25.1221   -1.4134 C.2       3 UNK         0.5044 
     26 O          22.5219   25.6432   -1.2178 O.2       3 UNK        -0.5152 
     27 CA         23.6975   23.8027   -2.2011 C.3       3 UNK         0.0319 
     28 CB         24.2256   24.0425   -3.6248 C.3       3 UNK        -0.2001 
     29 N          24.5309   22.8083   -1.5219 N.am      3 UNK        -0.4354 
     30 C          24.1816   22.1859   -0.3825 C.2       2 UNK         0.4964 
     31 O          23.0754   22.3022    0.1463 O.2       2 UNK        -0.5047 
     32 CA         25.2363   21.2904    0.2982 C.3       2 UNK         0.0288 
     33 CB         25.0167   19.8158   -0.0769 C.3       2 UNK        -0.2113 
     34 N          26.6115   21.6688   -0.0287 N.am      2 UNK        -0.4145 
     35 C          27.1833   22.8401    0.2887 C.2       1 UNK         0.5006 
     36 O          26.6558   23.6627    1.0374 O.2       1 UNK        -0.5103 
     37 C          28.4183   29.0417    1.5265 C.2       5 UNK         0.5055 
     38 O          28.4193   30.0896    2.1742 O.2       5 UNK        -0.5220 
     39 N          28.8099   28.9641    0.2476 N.am      6 UNK        -0.4450 
     40 CA         29.1545   30.0996   -0.6165 C.3       6 UNK         0.0367 
     41 CB         29.4119   29.5795   -2.0399 C.3       6 UNK        -0.1929 
     42 C          30.3374   30.9643   -0.1410 C.2       6 UNK         0.5070 
     43 O          30.4047   32.1360   -0.5133 O.2       6 UNK        -0.5237 
     44 N          31.2383   30.3866    0.6628 N.am      7 UNK        -0.4739 
     45 CA         32.4144   31.0550    1.2236 C.3       7 UNK         0.0276 
     46 CB         33.6885   30.4390    0.6143 C.3       7 UNK        -0.1927 
     47 C          32.4062   30.9965    2.7596 C.2       7 UNK         0.5013 
     48 O          33.4691   30.8532    3.3662 O.2       7 UNK        -0.5193 
     49 N          31.2186   31.1036    3.3783 N.am      8 UNK        -0.4253 
     50 CA         31.0083   31.0481    4.8347 C.3       8 UNK         0.0242 
     51 CB         29.5245   31.2863    5.1567 C.3       8 UNK        -0.2000 
     52 C          31.8806   32.0167    5.6554 C.2       8 UNK         0.4948 
     53 O          32.2805   31.6695    6.7657 O.2       8 UNK        -0.5275 
     54 N          32.1986   33.1864    5.0831 N.am      9 UNK        -0.4246 
     55 CA         33.1132   34.1764    5.6585 C.3       9 UNK         0.0261 
     56 CB         33.0447   35.4685    4.8281 C.3       9 UNK        -0.1959 
     57 C          34.5717   33.6892    5.7751 C.2       9 UNK         0.5033 
     58 O          35.2944   34.1858    6.6406 O.2       9 UNK        -0.5390 
     59 N          34.9798   32.7431    4.9175 N.am      10 UNK        -0.4215 
     60 CA         36.2943   32.1031    4.9513 C.3       10 UNK         0.0240 
     61 CB         36.7795   31.8380    3.5157 C.3       10 UNK        -0.1982 
     62 C          36.2472   30.7980    5.7585 C.2       10 UNK         0.4970 
     63 O          37.1470   30.5619    6.5658 O.2       10 UNK        -0.4916 
     64 N          35.2138   29.9763    5.5261 N.am      11 UNK        -0.4279 
     65 CA         35.0153   28.6860    6.2058 C.3       11 UNK         0.1003 
     66 C          34.6560   28.7969    7.7143 C.2       11 UNK         0.5709 
     67 N          33.9972   29.8553    8.1685 N.am      11 UNK        -0.7358 
     68 O          34.9929   27.9057    8.4904 O.2       11 UNK        -0.4999 
     69 C69        33.9953   27.7894    5.4605 C.3       12 UNK        -0.0954 
     70 S70        34.5990   27.2742    3.8184 S.3       12 UNK        -0.2268 
     71 C71        33.0677   27.2708    2.8379 C.3       12 UNK         0.0203 
     72 H72        29.1797   21.6639   -4.5397 H         1 UNK         0.0888 
     73 H73        29.8377   20.6668   -3.2406 H         1 UNK         0.0888 
     74 H74        28.2153   20.3503   -3.8605 H         1 UNK         0.0888 
     75 H75        29.7915   21.7119   -1.2478 H         1 UNK         0.3017 
     76 H76        28.3942   24.1363   -0.8569 H         1 UNK         0.0873 
     77 H77        29.3901   24.2137    1.3291 H         1 UNK         0.0745 
     78 H78        30.5845   23.7004    0.1739 H         1 UNK         0.0745 
     79 H79        31.6515   21.7826    3.4843 H         1 UNK         0.0705 
     80 H80        32.3674   22.3981    2.0155 H         1 UNK         0.0705 
     81 H81        33.0563   24.6426    2.1492 H         1 UNK         0.1334 
     82 H82        30.9193   27.5186    4.4943 H         1 UNK         0.1417 
     83 H83        29.5732   23.4482    4.3534 H         1 UNK         0.1562 
     84 H84        29.1898   26.7348    6.0570 H         1 UNK         0.0748 
     85 H85        28.7539   25.0483    6.1120 H         1 UNK         0.0748 
     86 H86        28.7415   28.2089    4.1179 H         1 UNK         0.0940 
     87 H87        27.0411   28.5437    4.0092 H         1 UNK         0.0940 
     88 H88        28.5984   26.9418    1.9092 H         1 UNK         0.0703 
     89 H89        25.7816   27.6986    2.1099 H         1 UNK         0.3081 
     90 H90        24.2780   26.7187    0.7363 H         1 UNK         0.0719 
     91 H91        23.5479   28.1105   -1.2169 H         1 UNK         0.0809 
     92 H92        25.2020   28.1731   -1.8221 H         1 UNK         0.0809 
     93 H93        24.7758   28.9802   -0.3199 H         1 UNK         0.0809 
     94 H94        25.6418   25.1226   -1.1454 H         1 UNK         0.2990 
     95 H95        22.6852   23.4005   -2.2820 H         1 UNK         0.0690 
     96 H96        24.2308   23.1201   -4.2057 H         1 UNK         0.0788 
     97 H97        25.2418   24.4390   -3.6205 H         1 UNK         0.0788 
     98 H98        23.5982   24.7584   -4.1574 H         1 UNK         0.0788 
     99 H99        25.4585   22.6557   -1.9060 H         1 UNK         0.2993 
    100 H100       25.1076   21.3974    1.3775 H         1 UNK         0.0949 
    101 H101       25.7084   19.1631    0.4563 H         1 UNK         0.0767 
    102 H102       24.0065   19.4942    0.1810 H         1 UNK         0.0767 
    103 H103       25.1498   19.6468   -1.1464 H         1 UNK         0.0767 
    104 H104       27.1226   21.0478   -0.6384 H         1 UNK         0.3013 
    105 H105       28.7018   28.0645   -0.2099 H         1 UNK         0.3121 
    106 H106       28.2800   30.7529   -0.6481 H         1 UNK         0.0774 
    107 H107       29.6352   30.4006   -2.7227 H         1 UNK         0.0815 
    108 H108       30.2576   28.8913   -2.0699 H         1 UNK         0.0815 
    109 H109       28.5400   29.0589   -2.4369 H         1 UNK         0.0815 
    110 H110       31.0911   29.4232    0.9282 H         1 UNK         0.2987 
    111 H111       32.4078   32.1170    0.9695 H         1 UNK         0.0949 
    112 H112       33.8020   29.3894    0.8839 H         1 UNK         0.0806 
    113 H113       33.6781   30.5060   -0.4736 H         1 UNK         0.0806 
    114 H114       34.5814   30.9623    0.9583 H         1 UNK         0.0806 
    115 H115       30.3854   31.1760    2.8064 H         1 UNK         0.3010 
    116 H116       31.2677   30.0382    5.1568 H         1 UNK         0.0829 
    117 H117       28.8908   30.5143    4.7246 H         1 UNK         0.0813 
    118 H118       29.3494   31.2734    6.2336 H         1 UNK         0.0813 
    119 H119       29.1795   32.2505    4.7815 H         1 UNK         0.0813 
    120 H120       31.8163   33.3917    4.1715 H         1 UNK         0.3038 
    121 H121       32.7650   34.4008    6.6691 H         1 UNK         0.0769 
    122 H122       33.6937   36.2376    5.2496 H         1 UNK         0.0811 
    123 H123       32.0339   35.8763    4.8091 H         1 UNK         0.0811 
    124 H124       33.3621   35.3042    3.7975 H         1 UNK         0.0811 
    125 H125       34.3063   32.3387    4.2740 H         1 UNK         0.3204 
    126 H126       37.0174   32.7683    5.4283 H         1 UNK         0.0748 
    127 H127       37.7763   31.3951    3.5185 H         1 UNK         0.0771 
    128 H128       36.1217   31.1521    2.9811 H         1 UNK         0.0771 
    129 H129       36.8371   32.7623    2.9408 H         1 UNK         0.0771 
    130 H130       34.5348   30.2222    4.8122 H         1 UNK         0.2980 
    131 H131       35.9757   28.1669    6.1751 H         1 UNK         0.0545 
    132 H132       33.6229   30.5586    7.5385 H         1 UNK         0.3459 
    133 H133       33.7834   29.9099    9.1509 H         1 UNK         0.3459 
    134 H134       33.0460   28.3161    5.3584 H         1 UNK         0.0616 
    135 H135       33.7852   26.8789    6.0251 H         1 UNK         0.0616 
    136 H136       32.5940   28.2475    2.9004 H         1 UNK         0.0634 
    137 H137       33.3236   27.1209    1.7882 H         1 UNK         0.0634 
@<TRIPOS>BOND
     1    1    2 1    
     2    1   72 1    
     3    1   73 1    
     4    1   74 1    
     5    2    3 2    
     6    2    4 am   BACKBONE|DICT|INTERRES
     7    4    5 1    
     8    4   75 1    
     9    5    6 1    
    10    5   35 1    
    11    5   76 1    
    12    6    7 1    
    13    6   77 1    
    14    6   78 1    
    15    7    8 1    
    16    8    9 1    
    17    8   79 1    
    18    8   80 1    
    19    9   10 ar   
    20    9   14 ar   
    21   10   11 ar   
    22   10   81 1    
    23   11   12 ar   
    24   11   71 1    
    25   12   13 ar   
    26   12   82 1    
    27   13   14 ar   
    28   13   15 1    
    29   14   83 1    
    30   15   16 1    
    31   15   84 1    
    32   15   85 1    
    33   16   17 1    
    34   17   18 1    
    35   17   86 1    
    36   17   87 1    
    37   18   19 1    
    38   18   37 1    
    39   18   88 1    
    40   19   20 am   BACKBONE|DICT|INTERRES
    41   19   89 1    
    42   20   21 2    
    43   20   22 1    
    44   22   23 1    
    45   22   24 1    
    46   22   90 1    
    47   23   91 1    
    48   23   92 1    
    49   23   93 1    
    50   24   25 am   BACKBONE|DICT|INTERRES
    51   24   94 1    
    52   25   26 2    
    53   25   27 1    
    54   27   28 1    
    55   27   29 1    
    56   27   95 1    
    57   28   96 1    
    58   28   97 1    
    59   28   98 1    
    60   29   30 am   BACKBONE|DICT|INTERRES
    61   29   99 1    
    62   30   31 2    
    63   30   32 1    
    64   32   33 1    
    65   32   34 1    
    66   32  100 1    
    67   33  101 1    
    68   33  102 1    
    69   33  103 1    
    70   34   35 am   BACKBONE|DICT|INTERRES
    71   34  104 1    
    72   35   36 2    
    73   37   38 2    
    74   37   39 am   BACKBONE|DICT|INTERRES
    75   39   40 1    
    76   39  105 1    
    77   40   41 1    
    78   40   42 1    
    79   40  106 1    
    80   41  107 1    
    81   41  108 1    
    82   41  109 1    
    83   42   43 2    
    84   42   44 am   BACKBONE|DICT|INTERRES
    85   44   45 1    
    86   44  110 1    
    87   45   46 1    
    88   45   47 1    
    89   45  111 1    
    90   46  112 1    
    91   46  113 1    
    92   46  114 1    
    93   47   48 2    
    94   47   49 am   BACKBONE|DICT|INTERRES
    95   49   50 1    
    96   49  115 1    
    97   50   51 1    
    98   50   52 1    
    99   50  116 1    
   100   51  117 1    
   101   51  118 1    
   102   51  119 1    
   103   52   53 2    
   104   52   54 am   BACKBONE|DICT|INTERRES
   105   54   55 1    
   106   54  120 1    
   107   55   56 1    
   108   55   57 1    
   109   55  121 1    
   110   56  122 1    
   111   56  123 1    
   112   56  124 1    
   113   57   58 2    
   114   57   59 am   BACKBONE|DICT|INTERRES
   115   59   60 1    
   116   59  125 1    
   117   60   61 1    
   118   60   62 1    
   119   60  126 1    
   120   61  127 1    
   121   61  128 1    
   122   61  129 1    
   123   62   63 2    
   124   62   64 am   BACKBONE|DICT|INTERRES
   125   64   65 1    
   126   64  130 1    
   127   65   66 1    
   128   65   69 1    
   129   65  131 1    
   130   66   67 am   BACKBONE|DICT|INTERRES
   131   66   68 2    
   132   67  132 1    
   133   67  133 1    
   134   69   70 1    
   135   69  134 1    
   136   69  135 1    
   137   70   71 1    
   138   71  136 1    
   139   71  137 1    
@<TRIPOS>SUBSTRUCTURE
     1 UNK         1 GROUP             0       ****    0 ROOT    
