@<TRIPOS>MOLECULE
3R136
137   139    1
SMALL
USER_CHARGES


@<TRIPOS>ATOM
      1 CA         27.7523   23.5632   -2.6645 C.3       0 UNK        -0.1979 
      2 C          27.9059   23.0126   -1.2552 C.2       0 UNK         0.4864 
      3 O          27.2284   22.0456   -0.9053 O.2       0 UNK        -0.5359 
      4 N          28.7895   23.6279   -0.4556 N.am      1 UNK        -0.4318 
      5 CA         29.1145   23.2730    0.9355 C.3       1 UNK         0.0824 
      6 C6         29.7410   21.8552    1.0847 C.3       12 UNK        -0.0944 
      7 S7         31.2012   21.6115    0.0113 S.3       12 UNK        -0.2672 
      8 C8         32.5766   21.6640    1.2034 C.3       12 UNK         0.0333 
      9 C9         32.6641   23.0082    1.9099 C.ar      12 UNK        -0.0807 
     10 C10        32.3030   23.1185    3.2553 C.ar      12 UNK        -0.0894 
     11 C11        32.3710   24.3508    3.9084 C.ar      12 UNK        -0.0804 
     12 C12        32.7881   25.4807    3.1991 C.ar      12 UNK        -0.0824 
     13 C13        33.1612   25.3863    1.8552 C.ar      12 UNK        -0.0762 
     14 C14        33.1089   24.1399    1.2198 C.ar      12 UNK        -0.0782 
     15 C15        33.6528   26.6365    1.1286 C.3       12 UNK         0.0230 
     16 S16        33.1155   26.7752   -0.6127 S.3       12 UNK        -0.2608 
     17 C17        31.2963   26.7265   -0.4906 C.3       12 UNK        -0.0989 
     18 CA         30.6680   28.1230   -0.2181 C.3       5 UNK         0.0716 
     19 N          29.3997   28.3525   -0.9132 N.am      5 UNK        -0.4135 
     20 C          28.2911   27.6125   -0.8285 C.2       4 UNK         0.5031 
     21 O          28.2061   26.5714   -0.1683 O.2       4 UNK        -0.5229 
     22 CA         27.0910   28.1031   -1.6496 C.3       4 UNK         0.0329 
     23 CB         27.0634   27.4255   -3.0276 C.3       4 UNK        -0.2001 
     24 N          25.8655   27.7766   -0.9305 N.am      4 UNK        -0.4303 
     25 C          25.1872   28.6251   -0.1485 C.2       3 UNK         0.5044 
     26 O          25.3940   29.8378   -0.0988 O.2       3 UNK        -0.5152 
     27 CA         24.1249   27.9955    0.7734 C.3       3 UNK         0.0319 
     28 CB         22.7668   27.9155    0.0584 C.3       3 UNK        -0.2001 
     29 N          24.5009   26.6622    1.2622 N.am      3 UNK        -0.4354 
     30 C          25.5996   26.3900    1.9832 C.2       2 UNK         0.4964 
     31 O          26.3944   27.2515    2.3594 O.2       2 UNK        -0.5047 
     32 CA         25.8967   24.9189    2.3020 C.3       2 UNK         0.0288 
     33 CB         24.7571   23.9431    1.9258 C.3       2 UNK        -0.2113 
     34 N          27.1288   24.5583    1.6046 N.am      2 UNK        -0.4145 
     35 C          27.9111   23.5057    1.8812 C.2       1 UNK         0.5006 
     36 O          27.7071   22.7385    2.8247 O.2       1 UNK        -0.5103 
     37 C          30.5774   28.4512    1.2859 C.2       5 UNK         0.5055 
     38 O          31.1556   29.4510    1.7101 O.2       5 UNK        -0.5220 
     39 N          29.8746   27.6173    2.0657 N.am      6 UNK        -0.4450 
     40 CA         29.8687   27.6706    3.5318 C.3       6 UNK         0.0367 
     41 CB         29.2269   26.4003    4.1134 C.3       6 UNK        -0.1929 
     42 C          29.2134   28.9409    4.0897 C.2       6 UNK         0.5070 
     43 O          29.8274   29.6285    4.9046 O.2       6 UNK        -0.5237 
     44 N          27.9958   29.2431    3.6237 N.am      7 UNK        -0.4739 
     45 CA         27.2733   30.4693    3.9717 C.3       7 UNK         0.0276 
     46 CB         25.7698   30.2503    3.7462 C.3       7 UNK        -0.1927 
     47 C          27.7588   31.6904    3.1715 C.2       7 UNK         0.5013 
     48 O          27.5967   32.8175    3.6404 O.2       7 UNK        -0.5193 
     49 N          28.3172   31.4514    1.9763 N.am      8 UNK        -0.4253 
     50 CA         28.8043   32.4881    1.0640 C.3       8 UNK         0.0242 
     51 CB         28.9499   31.9035   -0.3499 C.3       8 UNK        -0.2000 
     52 C          30.1283   33.1149    1.5297 C.2       8 UNK         0.4948 
     53 O          30.2807   34.3341    1.4405 O.2       8 UNK        -0.5275 
     54 N          31.0539   32.2738    2.0043 N.am      9 UNK        -0.4246 
     55 CA         32.3613   32.6531    2.5253 C.3       9 UNK         0.0261 
     56 CB         33.4597   32.1158    1.5829 C.3       9 UNK        -0.1959 
     57 C          32.4572   32.1391    3.9682 C.2       9 UNK         0.5033 
     58 O          31.8450   32.7381    4.8543 O.2       9 UNK        -0.5390 
     59 N          33.2152   31.0600    4.1871 N.am      10 UNK        -0.4215 
     60 CA         33.4257   30.4036    5.4728 C.3       10 UNK         0.0240 
     61 CB         34.4007   31.2275    6.3389 C.3       10 UNK        -0.1982 
     62 C          33.9753   28.9954    5.2180 C.2       10 UNK         0.4970 
     63 O          34.4252   28.7052    4.1060 O.2       10 UNK        -0.4916 
     64 N          33.9482   28.1602    6.2619 N.am      11 UNK        -0.4279 
     65 CA         34.5120   26.7999    6.2710 C.3       11 UNK         0.1003 
     66 C          36.0325   26.7353    6.6059 C.2       11 UNK         0.5709 
     67 N          36.6936   27.8440    6.9185 N.am      11 UNK        -0.7358 
     68 O          36.6301   25.6627    6.5695 O.2       11 UNK        -0.4999 
     69 C69        33.6574   25.8610    7.1694 C.3       12 UNK        -0.0954 
     70 S70        33.4318   24.1968    6.4577 S.3       12 UNK        -0.2268 
     71 C71        31.9882   24.4529    5.3772 C.3       12 UNK         0.0203 
     72 H72        28.4219   24.4030   -2.8491 H         1 UNK         0.0888 
     73 H73        27.9771   22.7866   -3.3950 H         1 UNK         0.0888 
     74 H74        26.7278   23.8966   -2.8269 H         1 UNK         0.0888 
     75 H75        29.2637   24.4480   -0.8053 H         1 UNK         0.3017 
     76 H76        29.8700   23.9907    1.2582 H         1 UNK         0.0873 
     77 H77        30.0264   21.6682    2.1210 H         1 UNK         0.0745 
     78 H78        29.0090   21.0848    0.8377 H         1 UNK         0.0745 
     79 H79        33.5111   21.4732    0.6738 H         1 UNK         0.0705 
     80 H80        32.4610   20.8507    1.9217 H         1 UNK         0.0705 
     81 H81        31.9716   22.2436    3.7980 H         1 UNK         0.1334 
     82 H82        32.8362   26.4375    3.6978 H         1 UNK         0.1417 
     83 H83        33.4010   24.0482    0.1826 H         1 UNK         0.1562 
     84 H84        34.7431   26.6375    1.1528 H         1 UNK         0.0748 
     85 H85        33.3413   27.5364    1.6609 H         1 UNK         0.0748 
     86 H86        30.9829   25.9738    0.2332 H         1 UNK         0.0940 
     87 H87        30.9496   26.3523   -1.4550 H         1 UNK         0.0940 
     88 H88        31.3346   28.8722   -0.6494 H         1 UNK         0.0703 
     89 H89        29.3792   29.1711   -1.5042 H         1 UNK         0.3081 
     90 H90        27.1708   29.1828   -1.7935 H         1 UNK         0.0719 
     91 H91        26.2414   27.8049   -3.6348 H         1 UNK         0.0809 
     92 H92        26.9423   26.3464   -2.9451 H         1 UNK         0.0809 
     93 H93        27.9859   27.6122   -3.5792 H         1 UNK         0.0809 
     94 H94        25.6516   26.7937   -0.8499 H         1 UNK         0.2990 
     95 H95        24.0124   28.6448    1.6431 H         1 UNK         0.0690 
     96 H96        21.9866   27.5518    0.7274 H         1 UNK         0.0788 
     97 H97        22.8031   27.2540   -0.8082 H         1 UNK         0.0788 
     98 H98        22.4547   28.8992   -0.2953 H         1 UNK         0.0788 
     99 H99        23.8993   25.8946    1.0001 H         1 UNK         0.2993 
    100 H100       26.0699   24.8585    3.3784 H         1 UNK         0.0949 
    101 H101       24.5921   23.9017    0.8483 H         1 UNK         0.0767 
    102 H102       24.9845   22.9295    2.2565 H         1 UNK         0.0767 
    103 H103       23.8179   24.2235    2.4048 H         1 UNK         0.0767 
    104 H104       27.4138   25.1953    0.8626 H         1 UNK         0.3013 
    105 H105       29.3211   26.8971    1.6181 H         1 UNK         0.3121 
    106 H106       30.9105   27.6900    3.8560 H         1 UNK         0.0774 
    107 H107       29.3118   26.3881    5.2005 H         1 UNK         0.0815 
    108 H108       28.1675   26.3278    3.8798 H         1 UNK         0.0815 
    109 H109       29.7094   25.4993    3.7368 H         1 UNK         0.0815 
    110 H110       27.5179   28.5775    3.0176 H         1 UNK         0.2987 
    111 H111       27.4311   30.6830    5.0314 H         1 UNK         0.0949 
    112 H112       25.4033   29.3877    4.3030 H         1 UNK         0.0806 
    113 H113       25.1953   31.1183    4.0721 H         1 UNK         0.0806 
    114 H114       25.5468   30.0896    2.6918 H         1 UNK         0.0806 
    115 H115       28.4083   30.4903    1.6845 H         1 UNK         0.3010 
    116 H116       28.0548   33.2819    1.0245 H         1 UNK         0.0829 
    117 H117       28.0159   31.4587   -0.6948 H         1 UNK         0.0813 
    118 H118       29.2203   32.6831   -1.0634 H         1 UNK         0.0813 
    119 H119       29.7297   31.1436   -0.3922 H         1 UNK         0.0813 
    120 H120       30.8538   31.2762    2.0329 H         1 UNK         0.3038 
    121 H121       32.4592   33.7396    2.5734 H         1 UNK         0.0769 
    122 H122       33.3909   32.5870    0.6023 H         1 UNK         0.0811 
    123 H123       33.3861   31.0382    1.4302 H         1 UNK         0.0811 
    124 H124       34.4554   32.3337    1.9719 H         1 UNK         0.0811 
    125 H125       33.6436   30.5770    3.4060 H         1 UNK         0.3204 
    126 H126       32.4631   30.3102    5.9806 H         1 UNK         0.0748 
    127 H127       34.5681   30.7564    7.3080 H         1 UNK         0.0771 
    128 H128       35.3719   31.3386    5.8547 H         1 UNK         0.0771 
    129 H129       34.0126   32.2268    6.5369 H         1 UNK         0.0771 
    130 H130       33.5793   28.4887    7.1425 H         1 UNK         0.2980 
    131 H131       34.4555   26.4261    5.2496 H         1 UNK         0.0545 
    132 H132       37.6780   27.7864    7.1271 H         1 UNK         0.3459 
    133 H133       36.2239   28.7337    6.9448 H         1 UNK         0.3459 
    134 H134       34.0975   25.7557    8.1629 H         1 UNK         0.0616 
    135 H135       32.6665   26.2815    7.3481 H         1 UNK         0.0616 
    136 H136       31.5298   25.4214    5.5755 H         1 UNK         0.0634 
    137 H137       31.2309   23.7056    5.6190 H         1 UNK         0.0634 
@<TRIPOS>BOND
     1    1    2 1    
     2    1   72 1    
     3    1   73 1    
     4    1   74 1    
     5    2    3 2    
     6    2    4 am   BACKBONE|DICT|INTERRES
     7    4    5 1    
     8    4   75 1    
     9    5    6 1    
    10    5   35 1    
    11    5   76 1    
    12    6    7 1    
    13    6   77 1    
    14    6   78 1    
    15    7    8 1    
    16    8    9 1    
    17    8   79 1    
    18    8   80 1    
    19    9   10 ar   
    20    9   14 ar   
    21   10   11 ar   
    22   10   81 1    
    23   11   12 ar   
    24   11   71 1    
    25   12   13 ar   
    26   12   82 1    
    27   13   14 ar   
    28   13   15 1    
    29   14   83 1    
    30   15   16 1    
    31   15   84 1    
    32   15   85 1    
    33   16   17 1    
    34   17   18 1    
    35   17   86 1    
    36   17   87 1    
    37   18   19 1    
    38   18   37 1    
    39   18   88 1    
    40   19   20 am   BACKBONE|DICT|INTERRES
    41   19   89 1    
    42   20   21 2    
    43   20   22 1    
    44   22   23 1    
    45   22   24 1    
    46   22   90 1    
    47   23   91 1    
    48   23   92 1    
    49   23   93 1    
    50   24   25 am   BACKBONE|DICT|INTERRES
    51   24   94 1    
    52   25   26 2    
    53   25   27 1    
    54   27   28 1    
    55   27   29 1    
    56   27   95 1    
    57   28   96 1    
    58   28   97 1    
    59   28   98 1    
    60   29   30 am   BACKBONE|DICT|INTERRES
    61   29   99 1    
    62   30   31 2    
    63   30   32 1    
    64   32   33 1    
    65   32   34 1    
    66   32  100 1    
    67   33  101 1    
    68   33  102 1    
    69   33  103 1    
    70   34   35 am   BACKBONE|DICT|INTERRES
    71   34  104 1    
    72   35   36 2    
    73   37   38 2    
    74   37   39 am   BACKBONE|DICT|INTERRES
    75   39   40 1    
    76   39  105 1    
    77   40   41 1    
    78   40   42 1    
    79   40  106 1    
    80   41  107 1    
    81   41  108 1    
    82   41  109 1    
    83   42   43 2    
    84   42   44 am   BACKBONE|DICT|INTERRES
    85   44   45 1    
    86   44  110 1    
    87   45   46 1    
    88   45   47 1    
    89   45  111 1    
    90   46  112 1    
    91   46  113 1    
    92   46  114 1    
    93   47   48 2    
    94   47   49 am   BACKBONE|DICT|INTERRES
    95   49   50 1    
    96   49  115 1    
    97   50   51 1    
    98   50   52 1    
    99   50  116 1    
   100   51  117 1    
   101   51  118 1    
   102   51  119 1    
   103   52   53 2    
   104   52   54 am   BACKBONE|DICT|INTERRES
   105   54   55 1    
   106   54  120 1    
   107   55   56 1    
   108   55   57 1    
   109   55  121 1    
   110   56  122 1    
   111   56  123 1    
   112   56  124 1    
   113   57   58 2    
   114   57   59 am   BACKBONE|DICT|INTERRES
   115   59   60 1    
   116   59  125 1    
   117   60   61 1    
   118   60   62 1    
   119   60  126 1    
   120   61  127 1    
   121   61  128 1    
   122   61  129 1    
   123   62   63 2    
   124   62   64 am   BACKBONE|DICT|INTERRES
   125   64   65 1    
   126   64  130 1    
   127   65   66 1    
   128   65   69 1    
   129   65  131 1    
   130   66   67 am   BACKBONE|DICT|INTERRES
   131   66   68 2    
   132   67  132 1    
   133   67  133 1    
   134   69   70 1    
   135   69  134 1    
   136   69  135 1    
   137   70   71 1    
   138   71  136 1    
   139   71  137 1    
@<TRIPOS>SUBSTRUCTURE
     1 UNK         1 GROUP             0       ****    0 ROOT    
