@<TRIPOS>MOLECULE
3R136
137   139    1
SMALL
USER_CHARGES


@<TRIPOS>ATOM
      1 CA         28.2975   22.3025    5.4559 C.3       0 UNK        -0.1979 
      2 C          27.7716   23.5958    4.8521 C.2       0 UNK         0.4864 
      3 O          26.6818   24.0395    5.2153 O.2       0 UNK        -0.5359 
      4 N          28.5265   24.1856    3.9142 N.am      1 UNK        -0.4318 
      5 CA         28.3011   25.4686    3.2221 C.3       1 UNK         0.0824 
      6 C6         28.2416   26.7085    4.1568 C.3       12 UNK        -0.0944 
      7 S7         29.5919   26.7810    5.3850 S.3       12 UNK        -0.2672 
      8 C8         30.8707   27.7378    4.5096 C.3       12 UNK         0.0333 
      9 C9         31.4904   26.9723    3.3472 C.ar      12 UNK        -0.0807 
     10 C10        32.0640   25.7138    3.5529 C.ar      12 UNK        -0.0894 
     11 C11        32.6441   25.0148    2.4907 C.ar      12 UNK        -0.0804 
     12 C12        32.6559   25.5856    1.2144 C.ar      12 UNK        -0.0824 
     13 C13        32.1094   26.8541    1.0000 C.ar      12 UNK        -0.0762 
     14 C14        31.5190   27.5365    2.0684 C.ar      12 UNK        -0.0782 
     15 C15        32.1952   27.5023   -0.3759 C.3       12 UNK         0.0230 
     16 S16        30.7495   27.1172   -1.4114 S.3       12 UNK        -0.2608 
     17 C17        29.4512   28.0537   -0.5434 C.3       12 UNK        -0.0989 
     18 CA         28.2361   28.3961   -1.4374 C.3       5 UNK         0.0716 
     19 N          27.6262   27.2087   -2.0516 N.am      5 UNK        -0.4135 
     20 C          26.7014   27.2422   -3.0200 C.2       4 UNK         0.5031 
     21 O          26.2411   28.2886   -3.4793 O.2       4 UNK        -0.5229 
     22 CA         26.1932   25.9091   -3.6025 C.3       4 UNK         0.0329 
     23 CB         27.0052   25.5138   -4.8520 C.3       4 UNK        -0.2001 
     24 N          26.0848   24.7874   -2.6585 N.am      4 UNK        -0.4303 
     25 C          27.0535   24.0987   -2.0420 C.2       3 UNK         0.5044 
     26 O          28.2489   24.3876   -2.1032 O.2       3 UNK        -0.5152 
     27 CA         26.5887   22.9052   -1.1845 C.3       3 UNK         0.0319 
     28 CB         27.7068   21.8669   -0.9782 C.3       3 UNK        -0.2001 
     29 N          26.1185   23.3546    0.1237 N.am      3 UNK        -0.4354 
     30 C          24.9928   24.0427    0.3587 C.2       2 UNK         0.4964 
     31 O          24.1346   24.2573   -0.4988 O.2       2 UNK        -0.5047 
     32 CA         24.7941   24.6072    1.7792 C.3       2 UNK         0.0288 
     33 CB         23.7919   23.7449    2.5632 C.3       2 UNK        -0.2113 
     34 N          26.0248   24.7415    2.5694 N.am      2 UNK        -0.4145 
     35 C          27.1029   25.4689    2.2471 C.2       1 UNK         0.5006 
     36 O          27.1859   26.1092    1.2000 O.2       1 UNK        -0.5103 
     37 C          27.2231   29.2305   -0.6285 C.2       5 UNK         0.5055 
     38 O          27.2755   30.4598   -0.6730 O.2       5 UNK        -0.5220 
     39 N          26.3526   28.5401    0.1205 N.am      6 UNK        -0.4450 
     40 CA         25.3643   29.0270    1.0896 C.3       6 UNK         0.0367 
     41 CB         24.3988   30.0652    0.4853 C.3       6 UNK        -0.1929 
     42 C          25.9993   29.5261    2.3984 C.2       6 UNK         0.5070 
     43 O          25.5425   29.1295    3.4703 O.2       6 UNK        -0.5237 
     44 N          27.0464   30.3519    2.3039 N.am      7 UNK        -0.4739 
     45 CA         27.8167   30.8784    3.4275 C.3       7 UNK         0.0276 
     46 CB         27.0638   32.0552    4.0773 C.3       7 UNK        -0.1927 
     47 C          29.2007   31.3214    2.9380 C.2       7 UNK         0.5013 
     48 O          29.3692   31.6120    1.7518 O.2       7 UNK        -0.5193 
     49 N          30.1517   31.3907    3.8730 N.am      8 UNK        -0.4253 
     50 CA         31.5177   31.8856    3.7182 C.3       8 UNK         0.0242 
     51 CB         32.3634   30.9456    2.8343 C.3       8 UNK        -0.2000 
     52 C          32.1231   31.9906    5.1237 C.2       8 UNK         0.4948 
     53 O          31.5555   31.4409    6.0729 O.2       8 UNK        -0.5275 
     54 N          33.2727   32.6689    5.2335 N.am      9 UNK        -0.4246 
     55 CA         34.0379   32.7911    6.4805 C.3       9 UNK         0.0261 
     56 CB         35.1143   33.8768    6.3160 C.3       9 UNK        -0.1959 
     57 C          34.6762   31.4641    6.9349 C.2       9 UNK         0.5033 
     58 O          34.8273   31.2476    8.1382 O.2       9 UNK        -0.5390 
     59 N          35.0280   30.6060    5.9711 N.am      10 UNK        -0.4215 
     60 CA         35.5914   29.2721    6.1477 C.3       10 UNK         0.0240 
     61 CB         37.0673   29.3655    6.5845 C.3       10 UNK        -0.1982 
     62 C          35.4627   28.5255    4.8143 C.2       10 UNK         0.4970 
     63 O          35.2604   29.1647    3.7777 O.2       10 UNK        -0.4916 
     64 N          35.6021   27.1963    4.8633 N.am      11 UNK        -0.4279 
     65 CA         35.6775   26.3283    3.6810 C.3       11 UNK         0.1003 
     66 C          36.9972   26.5539    2.8909 C.2       11 UNK         0.5709 
     67 N          36.9292   26.6528    1.5703 N.am      11 UNK        -0.7358 
     68 O          38.0820   26.6126    3.4679 O.2       11 UNK        -0.4999 
     69 C69        35.4802   24.8420    4.0856 C.3       12 UNK        -0.0954 
     70 S70        35.1051   23.7533    2.6679 S.3       12 UNK        -0.2268 
     71 C71        33.2872   23.6569    2.7277 C.3       12 UNK         0.0203 
     72 H72        28.4139   22.4142    6.5335 H         1 UNK         0.0888 
     73 H73        27.5964   21.4891    5.2710 H         1 UNK         0.0888 
     74 H74        29.2639   22.0196    5.0388 H         1 UNK         0.0888 
     75 H75        29.3936   23.7344    3.6587 H         1 UNK         0.3017 
     76 H76        29.1786   25.5908    2.5861 H         1 UNK         0.0873 
     77 H77        27.2997   26.7219    4.7086 H         1 UNK         0.0745 
     78 H78        28.2542   27.6267    3.5668 H         1 UNK         0.0745 
     79 H79        30.4347   28.6769    4.1720 H         1 UNK         0.0705 
     80 H80        31.6597   28.0011    5.2154 H         1 UNK         0.0705 
     81 H81        32.0610   25.2823    4.5446 H         1 UNK         0.1334 
     82 H82        33.1157   25.0518    0.3937 H         1 UNK         0.1417 
     83 H83        31.0910   28.5149    1.9046 H         1 UNK         0.1562 
     84 H84        33.0932   27.1568   -0.8904 H         1 UNK         0.0748 
     85 H85        32.3033   28.5840   -0.2807 H         1 UNK         0.0748 
     86 H86        29.8906   28.9768   -0.1590 H         1 UNK         0.0940 
     87 H87        29.1478   27.4742    0.3288 H         1 UNK         0.0940 
     88 H88        28.5922   29.0295   -2.2529 H         1 UNK         0.0703 
     89 H89        27.9982   26.3037   -1.7780 H         1 UNK         0.3081 
     90 H90        25.1701   26.0974   -3.9320 H         1 UNK         0.0719 
     91 H91        26.5979   24.6199   -5.3243 H         1 UNK         0.0809 
     92 H92        26.9850   26.3107   -5.5967 H         1 UNK         0.0809 
     93 H93        28.0521   25.3218   -4.6148 H         1 UNK         0.0809 
     94 H94        25.1348   24.5241   -2.4203 H         1 UNK         0.2990 
     95 H95        25.7645   22.4120   -1.7045 H         1 UNK         0.0690 
     96 H96        27.3438   20.9962   -0.4318 H         1 UNK         0.0788 
     97 H97        28.5508   22.2821   -0.4255 H         1 UNK         0.0788 
     98 H98        28.0886   21.5114   -1.9363 H         1 UNK         0.0788 
     99 H99        26.7652   23.2465    0.8903 H         1 UNK         0.2993 
    100 H100       24.3718   25.6075    1.6652 H         1 UNK         0.0949 
    101 H101       24.1756   22.7384    2.7351 H         1 UNK         0.0767 
    102 H102       23.5626   24.1866    3.5333 H         1 UNK         0.0767 
    103 H103       22.8494   23.6482    2.0219 H         1 UNK         0.0767 
    104 H104       26.0384   24.2984    3.4855 H         1 UNK         0.3013 
    105 H105       26.5141   27.5363    0.1742 H         1 UNK         0.3121 
    106 H106       24.7692   28.1503    1.3499 H         1 UNK         0.0774 
    107 H107       24.8977   31.0064    0.2534 H         1 UNK         0.0815 
    108 H108       23.5936   30.2941    1.1843 H         1 UNK         0.0815 
    109 H109       23.9392   29.6934   -0.4304 H         1 UNK         0.0815 
    110 H110       27.3813   30.6251    1.3826 H         1 UNK         0.2987 
    111 H111       27.9535   30.0836    4.1645 H         1 UNK         0.0949 
    112 H112       26.8894   32.8616    3.3638 H         1 UNK         0.0806 
    113 H113       26.0965   31.7424    4.4707 H         1 UNK         0.0806 
    114 H114       27.6285   32.4730    4.9116 H         1 UNK         0.0806 
    115 H115       29.9343   31.1610    4.8371 H         1 UNK         0.3010 
    116 H116       31.4788   32.8820    3.2735 H         1 UNK         0.0829 
    117 H117       31.9219   30.8052    1.8482 H         1 UNK         0.0813 
    118 H118       33.3627   31.3513    2.6737 H         1 UNK         0.0813 
    119 H119       32.4897   29.9659    3.2949 H         1 UNK         0.0813 
    120 H120       33.6678   33.1032    4.4111 H         1 UNK         0.3038 
    121 H121       33.3514   33.1101    7.2680 H         1 UNK         0.0769 
    122 H122       35.8264   33.6260    5.5287 H         1 UNK         0.0811 
    123 H123       35.6819   34.0049    7.2389 H         1 UNK         0.0811 
    124 H124       34.6709   34.8429    6.0745 H         1 UNK         0.0811 
    125 H125       34.8485   30.8406    5.0020 H         1 UNK         0.3204 
    126 H126       35.0104   28.7400    6.9039 H         1 UNK         0.0748 
    127 H127       37.6677   29.9085    5.8533 H         1 UNK         0.0771 
    128 H128       37.1706   29.8732    7.5436 H         1 UNK         0.0771 
    129 H129       37.5098   28.3752    6.6986 H         1 UNK         0.0771 
    130 H130       35.7999   26.7559    5.7492 H         1 UNK         0.2980 
    131 H131       34.8473   26.6174    3.0347 H         1 UNK         0.0545 
    132 H132       37.7773   26.7884    1.0432 H         1 UNK         0.3459 
    133 H133       36.0446   26.5869    1.0923 H         1 UNK         0.3459 
    134 H134       36.3672   24.4583    4.5930 H         1 UNK         0.0616 
    135 H135       34.6658   24.7525    4.8061 H         1 UNK         0.0616 
    136 H136       32.9786   23.2390    3.6872 H         1 UNK         0.0634 
    137 H137       32.9454   22.9572    1.9637 H         1 UNK         0.0634 
@<TRIPOS>BOND
     1    1    2 1    
     2    1   72 1    
     3    1   73 1    
     4    1   74 1    
     5    2    3 2    
     6    2    4 am   BACKBONE|DICT|INTERRES
     7    4    5 1    
     8    4   75 1    
     9    5    6 1    
    10    5   35 1    
    11    5   76 1    
    12    6    7 1    
    13    6   77 1    
    14    6   78 1    
    15    7    8 1    
    16    8    9 1    
    17    8   79 1    
    18    8   80 1    
    19    9   10 ar   
    20    9   14 ar   
    21   10   11 ar   
    22   10   81 1    
    23   11   12 ar   
    24   11   71 1    
    25   12   13 ar   
    26   12   82 1    
    27   13   14 ar   
    28   13   15 1    
    29   14   83 1    
    30   15   16 1    
    31   15   84 1    
    32   15   85 1    
    33   16   17 1    
    34   17   18 1    
    35   17   86 1    
    36   17   87 1    
    37   18   19 1    
    38   18   37 1    
    39   18   88 1    
    40   19   20 am   BACKBONE|DICT|INTERRES
    41   19   89 1    
    42   20   21 2    
    43   20   22 1    
    44   22   23 1    
    45   22   24 1    
    46   22   90 1    
    47   23   91 1    
    48   23   92 1    
    49   23   93 1    
    50   24   25 am   BACKBONE|DICT|INTERRES
    51   24   94 1    
    52   25   26 2    
    53   25   27 1    
    54   27   28 1    
    55   27   29 1    
    56   27   95 1    
    57   28   96 1    
    58   28   97 1    
    59   28   98 1    
    60   29   30 am   BACKBONE|DICT|INTERRES
    61   29   99 1    
    62   30   31 2    
    63   30   32 1    
    64   32   33 1    
    65   32   34 1    
    66   32  100 1    
    67   33  101 1    
    68   33  102 1    
    69   33  103 1    
    70   34   35 am   BACKBONE|DICT|INTERRES
    71   34  104 1    
    72   35   36 2    
    73   37   38 2    
    74   37   39 am   BACKBONE|DICT|INTERRES
    75   39   40 1    
    76   39  105 1    
    77   40   41 1    
    78   40   42 1    
    79   40  106 1    
    80   41  107 1    
    81   41  108 1    
    82   41  109 1    
    83   42   43 2    
    84   42   44 am   BACKBONE|DICT|INTERRES
    85   44   45 1    
    86   44  110 1    
    87   45   46 1    
    88   45   47 1    
    89   45  111 1    
    90   46  112 1    
    91   46  113 1    
    92   46  114 1    
    93   47   48 2    
    94   47   49 am   BACKBONE|DICT|INTERRES
    95   49   50 1    
    96   49  115 1    
    97   50   51 1    
    98   50   52 1    
    99   50  116 1    
   100   51  117 1    
   101   51  118 1    
   102   51  119 1    
   103   52   53 2    
   104   52   54 am   BACKBONE|DICT|INTERRES
   105   54   55 1    
   106   54  120 1    
   107   55   56 1    
   108   55   57 1    
   109   55  121 1    
   110   56  122 1    
   111   56  123 1    
   112   56  124 1    
   113   57   58 2    
   114   57   59 am   BACKBONE|DICT|INTERRES
   115   59   60 1    
   116   59  125 1    
   117   60   61 1    
   118   60   62 1    
   119   60  126 1    
   120   61  127 1    
   121   61  128 1    
   122   61  129 1    
   123   62   63 2    
   124   62   64 am   BACKBONE|DICT|INTERRES
   125   64   65 1    
   126   64  130 1    
   127   65   66 1    
   128   65   69 1    
   129   65  131 1    
   130   66   67 am   BACKBONE|DICT|INTERRES
   131   66   68 2    
   132   67  132 1    
   133   67  133 1    
   134   69   70 1    
   135   69  134 1    
   136   69  135 1    
   137   70   71 1    
   138   71  136 1    
   139   71  137 1    
@<TRIPOS>SUBSTRUCTURE
     1 UNK         1 GROUP             0       ****    0 ROOT    
