@<TRIPOS>MOLECULE
3R136
137   139    1
SMALL
USER_CHARGES


@<TRIPOS>ATOM
      1 CA         28.8277   19.6479   -0.3922 C.3       0 UNK        -0.1979 
      2 C          28.3202   20.6510   -1.4179 C.2       0 UNK         0.4864 
      3 O          27.5796   20.2760   -2.3286 O.2       0 UNK        -0.5359 
      4 N          28.7198   21.9208   -1.2801 N.am      1 UNK        -0.4318 
      5 CA         28.2651   23.0420   -2.1062 C.3       1 UNK         0.0824 
      6 C6         29.2432   24.2465   -2.0355 C.3       12 UNK        -0.0944 
      7 S7         29.6709   24.7815   -0.3386 S.3       12 UNK        -0.2672 
      8 C8         31.3864   24.1787   -0.2398 C.3       12 UNK         0.0333 
      9 C9         31.9418   24.3194    1.1668 C.ar      12 UNK        -0.0807 
     10 C10        32.8673   25.3220    1.4698 C.ar      12 UNK        -0.0894 
     11 C11        33.3718   25.4528    2.7674 C.ar      12 UNK        -0.0804 
     12 C12        32.9368   24.5764    3.7674 C.ar      12 UNK        -0.0824 
     13 C13        32.0123   23.5687    3.4740 C.ar      12 UNK        -0.0762 
     14 C14        31.5324   23.4355    2.1679 C.ar      12 UNK        -0.0782 
     15 C15        31.5151   22.6329    4.5672 C.3       12 UNK         0.0230 
     16 S16        29.7108   22.7548    4.8010 S.3       12 UNK        -0.2608 
     17 C17        29.5220   24.4812    5.3673 C.3       12 UNK        -0.0989 
     18 CA         29.1927   25.4796    4.2183 C.3       5 UNK         0.0716 
     19 N          28.0545   25.0829    3.3774 N.am      5 UNK        -0.4135 
     20 C          26.7846   24.9314    3.7780 C.2       4 UNK         0.5031 
     21 O          26.3945   25.1257    4.9311 O.2       4 UNK        -0.5229 
     22 CA         25.7896   24.4983    2.6832 C.3       4 UNK         0.0329 
     23 CB         24.3311   24.4280    3.1842 C.3       4 UNK        -0.2001 
     24 N          25.8786   25.3227    1.4705 N.am      4 UNK        -0.4303 
     25 C          25.6977   26.6521    1.3791 C.2       3 UNK         0.5044 
     26 O          25.4664   27.3782    2.3442 O.2       3 UNK        -0.5152 
     27 CA         25.8078   27.3051   -0.0134 C.3       3 UNK         0.0319 
     28 CB         27.1312   28.0769   -0.1340 C.3       3 UNK        -0.2001 
     29 N          25.7131   26.3534   -1.1208 N.am      3 UNK        -0.4354 
     30 C          24.6029   25.6928   -1.4807 C.2       2 UNK         0.4964 
     31 O          23.4941   25.8985   -0.9866 O.2       2 UNK        -0.5047 
     32 CA         24.7575   24.5955   -2.5528 C.3       2 UNK         0.0288 
     33 CB         24.2636   25.1046   -3.9171 C.3       2 UNK        -0.2113 
     34 N          26.1246   24.0759   -2.6999 N.am      2 UNK        -0.4145 
     35 C          26.8264   23.4569   -1.7382 C.2       1 UNK         0.5006 
     36 O          26.3996   23.2706   -0.5944 O.2       1 UNK        -0.5103 
     37 C          29.0918   26.9411    4.7116 C.2       5 UNK         0.5055 
     38 O          29.5686   27.2541    5.8031 O.2       5 UNK        -0.5220 
     39 N          28.5039   27.8150    3.8845 N.am      6 UNK        -0.4450 
     40 CA         28.4572   29.2675    4.0737 C.3       6 UNK         0.0367 
     41 CB         27.0249   29.6959    4.4418 C.3       6 UNK        -0.1929 
     42 C          28.9865   29.9844    2.8173 C.2       6 UNK         0.5070 
     43 O          28.5237   31.0777    2.4879 O.2       6 UNK        -0.5237 
     44 N          29.9157   29.3309    2.1081 N.am      7 UNK        -0.4739 
     45 CA         30.5500   29.8201    0.8849 C.3       7 UNK         0.0276 
     46 CB         31.0651   28.6005    0.0963 C.3       7 UNK        -0.1927 
     47 C          31.7032   30.7962    1.1828 C.2       7 UNK         0.5013 
     48 O          32.0883   30.9760    2.3405 O.2       7 UNK        -0.5193 
     49 N          32.2663   31.3667    0.1071 N.am      8 UNK        -0.4253 
     50 CA         33.4924   32.1727    0.0781 C.3       8 UNK         0.0242 
     51 CB         34.7230   31.2523    0.2624 C.3       8 UNK        -0.2000 
     52 C          33.4423   33.3673    1.0527 C.2       8 UNK         0.4948 
     53 O          32.4942   34.1527    0.9898 O.2       8 UNK        -0.5275 
     54 N          34.4579   33.4936    1.9171 N.am      9 UNK        -0.4246 
     55 CA         34.5667   34.5484    2.9242 C.3       9 UNK         0.0261 
     56 CB         36.0269   34.6500    3.3957 C.3       9 UNK        -0.1959 
     57 C          33.6292   34.3480    4.1277 C.2       9 UNK         0.5033 
     58 O          33.2033   35.3472    4.7093 O.2       9 UNK        -0.5390 
     59 N          33.3352   33.0889    4.4864 N.am      10 UNK        -0.4215 
     60 CA         32.4903   32.7066    5.6221 C.3       10 UNK         0.0240 
     61 CB         33.0647   33.2021    6.9699 C.3       10 UNK        -0.1982 
     62 C          32.2863   31.1884    5.6850 C.2       10 UNK         0.4970 
     63 O          31.1501   30.7522    5.8590 O.2       10 UNK        -0.4916 
     64 N          33.3884   30.4249    5.6043 N.am      11 UNK        -0.4279 
     65 CA         33.4479   28.9594    5.7959 C.3       11 UNK         0.1003 
     66 C          33.0724   28.4594    7.2279 C.2       11 UNK         0.5709 
     67 N          32.9621   29.3245    8.2296 N.am      11 UNK        -0.7358 
     68 O          32.9402   27.2591    7.4555 O.2       11 UNK        -0.4999 
     69 C69        32.7284   28.1640    4.6661 C.3       12 UNK        -0.0954 
     70 S70        33.6722   28.1949    3.1079 S.3       12 UNK        -0.2268 
     71 C71        34.4028   26.5291    3.0790 C.3       12 UNK         0.0203 
     72 H72        29.4815   20.1135    0.3452 H         1 UNK         0.0888 
     73 H73        27.9888   19.1960    0.1364 H         1 UNK         0.0888 
     74 H74        29.3866   18.8544   -0.8876 H         1 UNK         0.0888 
     75 H75        29.2853   22.1831   -0.4867 H         1 UNK         0.3017 
     76 H76        28.2433   22.6973   -3.1428 H         1 UNK         0.0873 
     77 H77        28.8433   25.1074   -2.5746 H         1 UNK         0.0745 
     78 H78        30.1604   23.9880   -2.5670 H         1 UNK         0.0745 
     79 H79        31.4284   23.1308   -0.5404 H         1 UNK         0.0705 
     80 H80        32.0010   24.7301   -0.9533 H         1 UNK         0.0705 
     81 H81        33.1985   26.0025    0.6973 H         1 UNK         0.1334 
     82 H82        33.3169   24.6811    4.7746 H         1 UNK         0.1417 
     83 H83        30.8150   22.6592    1.9392 H         1 UNK         0.1562 
     84 H84        32.0144   22.8343    5.5163 H         1 UNK         0.0748 
     85 H85        31.7681   21.6065    4.2980 H         1 UNK         0.0748 
     86 H86        30.4375   24.7797    5.8821 H         1 UNK         0.0940 
     87 H87        28.7367   24.5032    6.1247 H         1 UNK         0.0940 
     88 H88        30.0485   25.4880    3.5439 H         1 UNK         0.0703 
     89 H89        28.2733   24.8876    2.4106 H         1 UNK         0.3081 
     90 H90        26.0822   23.4895    2.3875 H         1 UNK         0.0719 
     91 H91        23.6590   24.0841    2.3979 H         1 UNK         0.0809 
     92 H92        23.9738   25.3985    3.5301 H         1 UNK         0.0809 
     93 H93        24.2380   23.7312    4.0181 H         1 UNK         0.0809 
     94 H94        26.0725   24.8026    0.6193 H         1 UNK         0.2990 
     95 H95        24.9849   28.0170   -0.1067 H         1 UNK         0.0690 
     96 H96        27.2164   28.5777   -1.0985 H         1 UNK         0.0788 
     97 H97        27.9900   27.4159   -0.0196 H         1 UNK         0.0788 
     98 H98        27.2046   28.8474    0.6344 H         1 UNK         0.0788 
     99 H99        26.5742   26.1289   -1.5964 H         1 UNK         0.2993 
    100 H100       24.1219   23.7618   -2.2462 H         1 UNK         0.0949 
    101 H101       23.2379   25.4705   -3.8500 H         1 UNK         0.0767 
    102 H102       24.8785   25.9254   -4.2887 H         1 UNK         0.0767 
    103 H103       24.2724   24.3110   -4.6648 H         1 UNK         0.0767 
    104 H104       26.5501   24.1974   -3.6082 H         1 UNK         0.3013 
    105 H105       28.0950   27.4717    3.0268 H         1 UNK         0.3121 
    106 H106       29.1146   29.5579    4.8934 H         1 UNK         0.0774 
    107 H107       26.9877   30.7564    4.6933 H         1 UNK         0.0815 
    108 H108       26.3311   29.5320    3.6173 H         1 UNK         0.0815 
    109 H109       26.6557   29.1443    5.3064 H         1 UNK         0.0815 
    110 H110       30.2949   28.4793    2.4932 H         1 UNK         0.2987 
    111 H111       29.8033   30.3436    0.2836 H         1 UNK         0.0949 
    112 H112       31.4693   28.8913   -0.8737 H         1 UNK         0.0806 
    113 H113       31.8583   28.0820    0.6352 H         1 UNK         0.0806 
    114 H114       30.2719   27.8798   -0.0958 H         1 UNK         0.0806 
    115 H115       31.8450   31.1939   -0.7947 H         1 UNK         0.3010 
    116 H116       33.5529   32.6062   -0.9213 H         1 UNK         0.0829 
    117 H117       34.7264   30.4555   -0.4816 H         1 UNK         0.0813 
    118 H118       35.6574   31.8009    0.1364 H         1 UNK         0.0813 
    119 H119       34.7376   30.7768    1.2444 H         1 UNK         0.0813 
    120 H120       35.1980   32.8071    1.8901 H         1 UNK         0.3038 
    121 H121       34.2981   35.4973    2.4542 H         1 UNK         0.0769 
    122 H122       36.1442   35.4488    4.1296 H         1 UNK         0.0811 
    123 H123       36.6977   34.8747    2.5663 H         1 UNK         0.0811 
    124 H124       36.3677   33.7258    3.8642 H         1 UNK         0.0811 
    125 H125       33.6149   32.3338    3.8724 H         1 UNK         0.3204 
    126 H126       31.5091   33.1618    5.4719 H         1 UNK         0.0748 
    127 H127       32.4905   32.8082    7.8099 H         1 UNK         0.0771 
    128 H128       34.1014   32.8932    7.1073 H         1 UNK         0.0771 
    129 H129       33.0277   34.2877    7.0543 H         1 UNK         0.0771 
    130 H130       34.2838   30.8793    5.5057 H         1 UNK         0.2980 
    131 H131       34.5087   28.7155    5.7297 H         1 UNK         0.0545 
    132 H132       33.0859   30.3105    8.0726 H         1 UNK         0.3459 
    133 H133       32.7402   28.9820    9.1510 H         1 UNK         0.3459 
    134 H134       31.7361   28.5720    4.4754 H         1 UNK         0.0616 
    135 H135       32.5640   27.1236    4.9455 H         1 UNK         0.0616 
    136 H136       34.8973   26.3352    4.0321 H         1 UNK         0.0634 
    137 H137       35.1847   26.5050    2.3188 H         1 UNK         0.0634 
@<TRIPOS>BOND
     1    1    2 1    
     2    1   72 1    
     3    1   73 1    
     4    1   74 1    
     5    2    3 2    
     6    2    4 am   BACKBONE|DICT|INTERRES
     7    4    5 1    
     8    4   75 1    
     9    5    6 1    
    10    5   35 1    
    11    5   76 1    
    12    6    7 1    
    13    6   77 1    
    14    6   78 1    
    15    7    8 1    
    16    8    9 1    
    17    8   79 1    
    18    8   80 1    
    19    9   10 ar   
    20    9   14 ar   
    21   10   11 ar   
    22   10   81 1    
    23   11   12 ar   
    24   11   71 1    
    25   12   13 ar   
    26   12   82 1    
    27   13   14 ar   
    28   13   15 1    
    29   14   83 1    
    30   15   16 1    
    31   15   84 1    
    32   15   85 1    
    33   16   17 1    
    34   17   18 1    
    35   17   86 1    
    36   17   87 1    
    37   18   19 1    
    38   18   37 1    
    39   18   88 1    
    40   19   20 am   BACKBONE|DICT|INTERRES
    41   19   89 1    
    42   20   21 2    
    43   20   22 1    
    44   22   23 1    
    45   22   24 1    
    46   22   90 1    
    47   23   91 1    
    48   23   92 1    
    49   23   93 1    
    50   24   25 am   BACKBONE|DICT|INTERRES
    51   24   94 1    
    52   25   26 2    
    53   25   27 1    
    54   27   28 1    
    55   27   29 1    
    56   27   95 1    
    57   28   96 1    
    58   28   97 1    
    59   28   98 1    
    60   29   30 am   BACKBONE|DICT|INTERRES
    61   29   99 1    
    62   30   31 2    
    63   30   32 1    
    64   32   33 1    
    65   32   34 1    
    66   32  100 1    
    67   33  101 1    
    68   33  102 1    
    69   33  103 1    
    70   34   35 am   BACKBONE|DICT|INTERRES
    71   34  104 1    
    72   35   36 2    
    73   37   38 2    
    74   37   39 am   BACKBONE|DICT|INTERRES
    75   39   40 1    
    76   39  105 1    
    77   40   41 1    
    78   40   42 1    
    79   40  106 1    
    80   41  107 1    
    81   41  108 1    
    82   41  109 1    
    83   42   43 2    
    84   42   44 am   BACKBONE|DICT|INTERRES
    85   44   45 1    
    86   44  110 1    
    87   45   46 1    
    88   45   47 1    
    89   45  111 1    
    90   46  112 1    
    91   46  113 1    
    92   46  114 1    
    93   47   48 2    
    94   47   49 am   BACKBONE|DICT|INTERRES
    95   49   50 1    
    96   49  115 1    
    97   50   51 1    
    98   50   52 1    
    99   50  116 1    
   100   51  117 1    
   101   51  118 1    
   102   51  119 1    
   103   52   53 2    
   104   52   54 am   BACKBONE|DICT|INTERRES
   105   54   55 1    
   106   54  120 1    
   107   55   56 1    
   108   55   57 1    
   109   55  121 1    
   110   56  122 1    
   111   56  123 1    
   112   56  124 1    
   113   57   58 2    
   114   57   59 am   BACKBONE|DICT|INTERRES
   115   59   60 1    
   116   59  125 1    
   117   60   61 1    
   118   60   62 1    
   119   60  126 1    
   120   61  127 1    
   121   61  128 1    
   122   61  129 1    
   123   62   63 2    
   124   62   64 am   BACKBONE|DICT|INTERRES
   125   64   65 1    
   126   64  130 1    
   127   65   66 1    
   128   65   69 1    
   129   65  131 1    
   130   66   67 am   BACKBONE|DICT|INTERRES
   131   66   68 2    
   132   67  132 1    
   133   67  133 1    
   134   69   70 1    
   135   69  134 1    
   136   69  135 1    
   137   70   71 1    
   138   71  136 1    
   139   71  137 1    
@<TRIPOS>SUBSTRUCTURE
     1 UNK         1 GROUP             0       ****    0 ROOT    
