@<TRIPOS>MOLECULE
3R136
137   139    1
SMALL
USER_CHARGES


@<TRIPOS>ATOM
      1 CA         28.7580   25.3035   -5.4815 C.3       0 UNK        -0.1979 
      2 C          29.3198   24.7070   -4.1998 C.2       0 UNK         0.4864 
      3 O          29.3564   23.4828   -4.0620 O.2       0 UNK        -0.5359 
      4 N          29.7510   25.5627   -3.2612 N.am      1 UNK        -0.4318 
      5 CA         30.3118   25.2382   -1.9415 C.3       1 UNK         0.0824 
      6 C6         31.5747   24.3353   -2.0115 C.3       12 UNK        -0.0944 
      7 S7         32.6502   24.5203   -0.5522 S.3       12 UNK        -0.2672 
      8 C8         32.1823   23.0711    0.4458 C.3       12 UNK         0.0333 
      9 C9         32.0176   23.4308    1.9158 C.ar      12 UNK        -0.0807 
     10 C10        33.1340   23.7635    2.6877 C.ar      12 UNK        -0.0894 
     11 C11        32.9989   24.0490    4.0497 C.ar      12 UNK        -0.0804 
     12 C12        31.7322   24.0021    4.6420 C.ar      12 UNK        -0.0824 
     13 C13        30.6071   23.6613    3.8828 C.ar      12 UNK        -0.0762 
     14 C14        30.7568   23.3874    2.5186 C.ar      12 UNK        -0.0782 
     15 C15        29.2467   23.4930    4.5489 C.3       12 UNK         0.0230 
     16 S16        27.9535   24.5438    3.8127 S.3       12 UNK        -0.2608 
     17 C17        28.0348   26.0656    4.8254 C.3       12 UNK        -0.0989 
     18 CA         28.4396   27.3258    4.0179 C.3       5 UNK         0.0716 
     19 N          27.6901   27.4341    2.7696 N.am      5 UNK        -0.4135 
     20 C          27.8702   28.3234    1.7853 C.2       4 UNK         0.5031 
     21 O          28.7371   29.2021    1.7991 O.2       4 UNK        -0.5229 
     22 CA         26.9299   28.1939    0.5715 C.3       4 UNK         0.0329 
     23 CB         27.6653   28.4738   -0.7497 C.3       4 UNK        -0.2001 
     24 N          26.3323   26.8549    0.5189 N.am      4 UNK        -0.4303 
     25 C          25.0444   26.5670    0.7605 C.2       3 UNK         0.5044 
     26 O          24.1852   27.4278    0.9538 O.2       3 UNK        -0.5152 
     27 CA         24.6405   25.0798    0.8750 C.3       3 UNK         0.0319 
     28 CB         23.3566   24.7603    0.0794 C.3       3 UNK        -0.2001 
     29 N          25.7182   24.1261    0.5738 N.am      3 UNK        -0.4354 
     30 C          26.2885   23.8928   -0.6160 C.2       2 UNK         0.4964 
     31 O          25.9292   24.4063   -1.6775 O.2       2 UNK        -0.5047 
     32 CA         27.5050   22.9536   -0.6070 C.3       2 UNK         0.0288 
     33 CB         27.1616   21.6002   -1.2487 C.3       2 UNK        -0.2113 
     34 N          28.6280   23.5586   -1.3216 N.am      2 UNK        -0.4145 
     35 C          29.2420   24.6962   -0.9702 C.2       1 UNK         0.5006 
     36 O          28.9697   25.3260    0.0537 O.2       1 UNK        -0.5103 
     37 C          28.2429   28.6012    4.8580 C.2       5 UNK         0.5055 
     38 O          27.1000   28.9600    5.1505 O.2       5 UNK        -0.5220 
     39 N          29.3549   29.2608    5.2011 N.am      6 UNK        -0.4450 
     40 CA         29.4609   30.5524    5.8906 C.3       6 UNK         0.0367 
     41 CB         28.7654   30.5321    7.2684 C.3       6 UNK        -0.1929 
     42 C          29.0414   31.7600    5.0256 C.2       6 UNK         0.5070 
     43 O          28.9395   32.8665    5.5571 O.2       6 UNK        -0.5237 
     44 N          28.8444   31.5493    3.7173 N.am      7 UNK        -0.4739 
     45 CA         28.6238   32.5882    2.7157 C.3       7 UNK         0.0276 
     46 CB         27.2844   32.3386    1.9919 C.3       7 UNK        -0.1927 
     47 C          29.8500   32.5929    1.7932 C.2       7 UNK         0.5013 
     48 O          30.8773   33.1543    2.1761 O.2       7 UNK        -0.5193 
     49 N          29.7458   31.9562    0.6174 N.am      8 UNK        -0.4253 
     50 CA         30.8572   31.7850   -0.3240 C.3       8 UNK         0.0242 
     51 CB         30.3260   31.3446   -1.6975 C.3       8 UNK        -0.2000 
     52 C          31.9131   30.7936    0.1929 C.2       8 UNK         0.4948 
     53 O          33.1062   31.0258   -0.0063 O.2       8 UNK        -0.5275 
     54 N          31.4661   29.7304    0.8753 N.am      9 UNK        -0.4246 
     55 CA         32.3227   28.7894    1.5901 C.3       9 UNK         0.0261 
     56 CB         31.7272   27.3765    1.4787 C.3       9 UNK        -0.1959 
     57 C          32.4263   29.2737    3.0392 C.2       9 UNK         0.5033 
     58 O          31.7076   28.7755    3.9084 O.2       9 UNK        -0.5390 
     59 N          33.2720   30.2878    3.2644 N.am      10 UNK        -0.4215 
     60 CA         33.4432   31.0286    4.5216 C.3       10 UNK         0.0240 
     61 CB         34.1886   32.3419    4.2198 C.3       10 UNK        -0.1982 
     62 C          34.1038   30.2172    5.6604 C.2       10 UNK         0.4970 
     63 O          35.0492   30.6906    6.2931 O.2       10 UNK        -0.4916 
     64 N          33.5885   29.0099    5.8993 N.am      11 UNK        -0.4279 
     65 CA         34.0261   28.0547    6.9246 C.3       11 UNK         0.1003 
     66 C          33.4837   28.3534    8.3528 C.2       11 UNK         0.5709 
     67 N          32.6015   29.3274    8.5449 N.am      11 UNK        -0.7358 
     68 O          33.8821   27.6943    9.3102 O.2       11 UNK        -0.4999 
     69 C69        33.7029   26.6016    6.4883 C.3       12 UNK        -0.0954 
     70 S70        34.5765   26.1391    4.9554 S.3       12 UNK        -0.2268 
     71 C71        34.2354   24.3556    4.8813 C.3       12 UNK         0.0203 
     72 H72        27.7188   25.0018   -5.6100 H         1 UNK         0.0888 
     73 H73        28.7969   26.3927   -5.4773 H         1 UNK         0.0888 
     74 H74        29.3254   24.9473   -6.3408 H         1 UNK         0.0888 
     75 H75        29.6667   26.5528   -3.4460 H         1 UNK         0.3017 
     76 H76        30.6225   26.2043   -1.5411 H         1 UNK         0.0873 
     77 H77        31.3228   23.2860   -2.1740 H         1 UNK         0.0745 
     78 H78        32.1781   24.6237   -2.8737 H         1 UNK         0.0745 
     79 H79        32.9527   22.3059    0.3417 H         1 UNK         0.0705 
     80 H80        31.2618   22.6275    0.0642 H         1 UNK         0.0705 
     81 H81        34.1121   23.7895    2.2266 H         1 UNK         0.1334 
     82 H82        31.6301   24.1998    5.7002 H         1 UNK         0.1417 
     83 H83        29.8890   23.1179    1.9324 H         1 UNK         0.1562 
     84 H84        29.3046   23.6684    5.6240 H         1 UNK         0.0748 
     85 H85        28.9417   22.4519    4.4350 H         1 UNK         0.0748 
     86 H86        28.7259   25.9224    5.6578 H         1 UNK         0.0940 
     87 H87        27.0490   26.1979    5.2767 H         1 UNK         0.0940 
     88 H88        29.4942   27.2281    3.7585 H         1 UNK         0.0703 
     89 H89        26.9571   26.7524    2.6545 H         1 UNK         0.3081 
     90 H90        26.1540   28.9521    0.6921 H         1 UNK         0.0719 
     91 H91        28.5728   27.8770   -0.8445 H         1 UNK         0.0809 
     92 H92        27.0315   28.2642   -1.6114 H         1 UNK         0.0809 
     93 H93        27.9512   29.5230   -0.8092 H         1 UNK         0.0809 
     94 H94        26.9894   26.0948    0.3757 H         1 UNK         0.2990 
     95 H95        24.4088   24.9249    1.9299 H         1 UNK         0.0690 
     96 H96        23.0773   23.7115    0.1795 H         1 UNK         0.0788 
     97 H97        23.4684   24.9793   -0.9827 H         1 UNK         0.0788 
     98 H98        22.5158   25.3533    0.4415 H         1 UNK         0.0788 
     99 H99        26.1054   23.6571    1.3821 H         1 UNK         0.2993 
    100 H100       27.8204   22.7807    0.4241 H         1 UNK         0.0949 
    101 H101       26.8670   21.7135   -2.2931 H         1 UNK         0.0767 
    102 H102       28.0106   20.9172   -1.2122 H         1 UNK         0.0767 
    103 H103       26.3343   21.1184   -0.7256 H         1 UNK         0.0767 
    104 H104       28.8524   23.1828   -2.2394 H         1 UNK         0.3013 
    105 H105       30.2370   28.9209    4.8109 H         1 UNK         0.3121 
    106 H106       30.5256   30.6874    6.0788 H         1 UNK         0.0774 
    107 H107       29.0151   31.4245    7.8435 H         1 UNK         0.0815 
    108 H108       27.6795   30.5044    7.1772 H         1 UNK         0.0815 
    109 H109       29.0772   29.6707    7.8589 H         1 UNK         0.0815 
    110 H110       28.9626   30.6105    3.3511 H         1 UNK         0.2987 
    111 H111       28.5746   33.5753    3.1806 H         1 UNK         0.0949 
    112 H112       27.1245   33.0711    1.1995 H         1 UNK         0.0806 
    113 H113       27.2225   31.3469    1.5460 H         1 UNK         0.0806 
    114 H114       26.4491   32.4328    2.6860 H         1 UNK         0.0806 
    115 H115       28.8775   31.4902    0.3990 H         1 UNK         0.3010 
    116 H116       31.3443   32.7551   -0.4469 H         1 UNK         0.0829 
    117 H117       29.5520   32.0192   -2.0638 H         1 UNK         0.0813 
    118 H118       31.1286   31.3430   -2.4363 H         1 UNK         0.0813 
    119 H119       29.9151   30.3359   -1.6721 H         1 UNK         0.0813 
    120 H120       30.4692   29.6409    1.0568 H         1 UNK         0.3038 
    121 H121       33.3248   28.7652    1.1567 H         1 UNK         0.0769 
    122 H122       32.3257   26.6510    2.0315 H         1 UNK         0.0811 
    123 H123       31.6962   27.0544    0.4403 H         1 UNK         0.0811 
    124 H124       30.7111   27.3206    1.8628 H         1 UNK         0.0811 
    125 H125       33.8019   30.6321    2.4749 H         1 UNK         0.3204 
    126 H126       32.4477   31.3017    4.8740 H         1 UNK         0.0748 
    127 H127       34.2721   32.9622    5.1133 H         1 UNK         0.0771 
    128 H128       35.1991   32.1570    3.8532 H         1 UNK         0.0771 
    129 H129       33.6606   32.9327    3.4702 H         1 UNK         0.0771 
    130 H130       32.8279   28.7030    5.2970 H         1 UNK         0.2980 
    131 H131       35.1115   28.1367    7.0078 H         1 UNK         0.0545 
    132 H132       32.2789   29.8830    7.7713 H         1 UNK         0.3459 
    133 H133       32.2664   29.5111    9.4772 H         1 UNK         0.3459 
    134 H134       32.6296   26.4750    6.3354 H         1 UNK         0.0616 
    135 H135       33.9946   25.8946    7.2671 H         1 UNK         0.0616 
    136 H136       34.1298   23.9461    5.8869 H         1 UNK         0.0634 
    137 H137       35.1038   23.8579    4.4469 H         1 UNK         0.0634 
@<TRIPOS>BOND
     1    1    2 1    
     2    1   72 1    
     3    1   73 1    
     4    1   74 1    
     5    2    3 2    
     6    2    4 am   BACKBONE|DICT|INTERRES
     7    4    5 1    
     8    4   75 1    
     9    5    6 1    
    10    5   35 1    
    11    5   76 1    
    12    6    7 1    
    13    6   77 1    
    14    6   78 1    
    15    7    8 1    
    16    8    9 1    
    17    8   79 1    
    18    8   80 1    
    19    9   10 ar   
    20    9   14 ar   
    21   10   11 ar   
    22   10   81 1    
    23   11   12 ar   
    24   11   71 1    
    25   12   13 ar   
    26   12   82 1    
    27   13   14 ar   
    28   13   15 1    
    29   14   83 1    
    30   15   16 1    
    31   15   84 1    
    32   15   85 1    
    33   16   17 1    
    34   17   18 1    
    35   17   86 1    
    36   17   87 1    
    37   18   19 1    
    38   18   37 1    
    39   18   88 1    
    40   19   20 am   BACKBONE|DICT|INTERRES
    41   19   89 1    
    42   20   21 2    
    43   20   22 1    
    44   22   23 1    
    45   22   24 1    
    46   22   90 1    
    47   23   91 1    
    48   23   92 1    
    49   23   93 1    
    50   24   25 am   BACKBONE|DICT|INTERRES
    51   24   94 1    
    52   25   26 2    
    53   25   27 1    
    54   27   28 1    
    55   27   29 1    
    56   27   95 1    
    57   28   96 1    
    58   28   97 1    
    59   28   98 1    
    60   29   30 am   BACKBONE|DICT|INTERRES
    61   29   99 1    
    62   30   31 2    
    63   30   32 1    
    64   32   33 1    
    65   32   34 1    
    66   32  100 1    
    67   33  101 1    
    68   33  102 1    
    69   33  103 1    
    70   34   35 am   BACKBONE|DICT|INTERRES
    71   34  104 1    
    72   35   36 2    
    73   37   38 2    
    74   37   39 am   BACKBONE|DICT|INTERRES
    75   39   40 1    
    76   39  105 1    
    77   40   41 1    
    78   40   42 1    
    79   40  106 1    
    80   41  107 1    
    81   41  108 1    
    82   41  109 1    
    83   42   43 2    
    84   42   44 am   BACKBONE|DICT|INTERRES
    85   44   45 1    
    86   44  110 1    
    87   45   46 1    
    88   45   47 1    
    89   45  111 1    
    90   46  112 1    
    91   46  113 1    
    92   46  114 1    
    93   47   48 2    
    94   47   49 am   BACKBONE|DICT|INTERRES
    95   49   50 1    
    96   49  115 1    
    97   50   51 1    
    98   50   52 1    
    99   50  116 1    
   100   51  117 1    
   101   51  118 1    
   102   51  119 1    
   103   52   53 2    
   104   52   54 am   BACKBONE|DICT|INTERRES
   105   54   55 1    
   106   54  120 1    
   107   55   56 1    
   108   55   57 1    
   109   55  121 1    
   110   56  122 1    
   111   56  123 1    
   112   56  124 1    
   113   57   58 2    
   114   57   59 am   BACKBONE|DICT|INTERRES
   115   59   60 1    
   116   59  125 1    
   117   60   61 1    
   118   60   62 1    
   119   60  126 1    
   120   61  127 1    
   121   61  128 1    
   122   61  129 1    
   123   62   63 2    
   124   62   64 am   BACKBONE|DICT|INTERRES
   125   64   65 1    
   126   64  130 1    
   127   65   66 1    
   128   65   69 1    
   129   65  131 1    
   130   66   67 am   BACKBONE|DICT|INTERRES
   131   66   68 2    
   132   67  132 1    
   133   67  133 1    
   134   69   70 1    
   135   69  134 1    
   136   69  135 1    
   137   70   71 1    
   138   71  136 1    
   139   71  137 1    
@<TRIPOS>SUBSTRUCTURE
     1 UNK         1 GROUP             0       ****    0 ROOT    
