@<TRIPOS>MOLECULE
3R136
137   139    1
SMALL
USER_CHARGES


@<TRIPOS>ATOM
      1 CA         31.9880   23.6639   -1.7326 C.3       0 UNK        -0.1979 
      2 C          30.9545   23.7409   -0.6202 C.2       0 UNK         0.4864 
      3 O          30.3490   24.7959   -0.4252 O.2       0 UNK        -0.5359 
      4 N          30.7492   22.6376    0.1137 N.am      1 UNK        -0.4318 
      5 CA         29.7850   22.5386    1.2149 C.3       1 UNK         0.0824 
      6 C6         29.9575   21.2205    2.0106 C.3       12 UNK        -0.0944 
      7 S7         29.2882   21.3143    3.7086 S.3       12 UNK        -0.2672 
      8 C8         30.7481   21.8137    4.6813 C.3       12 UNK         0.0333 
      9 C9         31.0748   23.2850    4.4736 C.ar      12 UNK        -0.0807 
     10 C10        32.0294   23.6675    3.5269 C.ar      12 UNK        -0.0894 
     11 C11        32.2857   25.0202    3.2796 C.ar      12 UNK        -0.0804 
     12 C12        31.5839   25.9902    4.0021 C.ar      12 UNK        -0.0824 
     13 C13        30.6487   25.6220    4.9748 C.ar      12 UNK        -0.0762 
     14 C14        30.4017   24.2658    5.2089 C.ar      12 UNK        -0.0782 
     15 C15        29.9125   26.6947    5.7711 C.3       12 UNK         0.0230 
     16 S16        28.0960   26.6538    5.5667 S.3       12 UNK        -0.2608 
     17 C17        27.8801   26.6616    3.7571 C.3       12 UNK        -0.0989 
     18 CA         28.2300   28.0175    3.0926 C.3       5 UNK         0.0716 
     19 N          28.8007   27.8142    1.7617 N.am      5 UNK        -0.4135 
     20 C          29.3731   28.7575    1.0036 C.2       4 UNK         0.5031 
     21 O          29.5081   29.9311    1.3471 O.2       4 UNK        -0.5229 
     22 CA         29.8386   28.3156   -0.3929 C.3       4 UNK         0.0329 
     23 CB         31.3113   27.8799   -0.3598 C.3       4 UNK        -0.2001 
     24 N          29.0198   27.2197   -0.9208 N.am      4 UNK        -0.4303 
     25 C          27.7730   27.3772   -1.3867 C.2       3 UNK         0.5044 
     26 O          27.1986   28.4652   -1.4440 O.2       3 UNK        -0.5152 
     27 CA         27.0333   26.1054   -1.8365 C.3       3 UNK         0.0319 
     28 CB         27.7043   25.4820   -3.0721 C.3       3 UNK        -0.2001 
     29 N          26.9050   25.0897   -0.7870 N.am      3 UNK        -0.4354 
     30 C          26.3085   25.2534    0.4016 C.2       2 UNK         0.4964 
     31 O          25.8524   26.3244    0.7952 O.2       2 UNK        -0.5047 
     32 CA         26.2319   24.0318    1.3350 C.3       2 UNK         0.0288 
     33 CB         25.1897   23.0036    0.8517 C.3       2 UNK        -0.2113 
     34 N          27.5451   23.4283    1.5897 N.am      2 UNK        -0.4145 
     35 C          28.3391   22.7711    0.7332 C.2       1 UNK         0.5006 
     36 O          27.9979   22.4150   -0.3988 O.2       1 UNK        -0.5103 
     37 C          27.0367   28.9965    3.0586 C.2       5 UNK         0.5055 
     38 O          26.9969   29.9358    3.8537 O.2       5 UNK        -0.5220 
     39 N          26.1243   28.8105    2.0917 N.am      6 UNK        -0.4450 
     40 CA         24.9991   29.7091    1.8102 C.3       6 UNK         0.0367 
     41 CB         24.0642   29.0494    0.7845 C.3       6 UNK        -0.1929 
     42 C          25.4332   31.1021    1.3184 C.2       6 UNK         0.5070 
     43 O          24.7200   32.0756    1.5604 O.2       6 UNK        -0.5237 
     44 N          26.6039   31.1828    0.6710 N.am      7 UNK        -0.4739 
     45 CA         27.2564   32.4322    0.2661 C.3       7 UNK         0.0276 
     46 CB         28.1692   32.1537   -0.9410 C.3       7 UNK        -0.1927 
     47 C          28.0383   33.1098    1.4126 C.2       7 UNK         0.5013 
     48 O          28.6281   34.1664    1.1828 O.2       7 UNK        -0.5193 
     49 N          28.0301   32.5055    2.6116 N.am      8 UNK        -0.4253 
     50 CA         28.6789   32.9446    3.8514 C.3       8 UNK         0.0242 
     51 CB         28.1308   34.3102    4.3206 C.3       8 UNK        -0.2000 
     52 C          30.2183   32.8925    3.8078 C.2       8 UNK         0.4948 
     53 O          30.8684   33.6324    4.5498 O.2       8 UNK        -0.5275 
     54 N          30.7799   32.0038    2.9786 N.am      9 UNK        -0.4246 
     55 CA         32.1994   31.6532    2.9842 C.3       9 UNK         0.0261 
     56 CB         32.6634   31.4264    1.5374 C.3       9 UNK        -0.1959 
     57 C          32.4047   30.3903    3.8351 C.2       9 UNK         0.5033 
     58 O          31.4631   29.6175    4.0267 O.2       9 UNK        -0.5390 
     59 N          33.6338   30.1950    4.3218 N.am      10 UNK        -0.4215 
     60 CA         34.0351   29.0428    5.1275 C.3       10 UNK         0.0240 
     61 CB         34.5431   29.5357    6.4930 C.3       10 UNK        -0.1982 
     62 C          35.1349   28.2673    4.3952 C.2       10 UNK         0.4970 
     63 O          35.9727   28.8788    3.7281 O.2       10 UNK        -0.4916 
     64 N          35.1244   26.9417    4.5651 N.am      11 UNK        -0.4279 
     65 CA         36.1430   26.0167    4.0432 C.3       11 UNK         0.1003 
     66 C          37.4187   25.9214    4.9334 C.2       11 UNK         0.5709 
     67 N          37.4561   26.5151    6.1211 N.am      11 UNK        -0.7358 
     68 O          38.4033   25.3071    4.5298 O.2       11 UNK        -0.4999 
     69 C69        35.5225   24.6173    3.7695 C.3       12 UNK        -0.0954 
     70 S70        34.7988   24.4655    2.1016 S.3       12 UNK        -0.2268 
     71 C71        33.2694   25.4558    2.1973 C.3       12 UNK         0.0203 
     72 H72        32.7761   24.3963   -1.5595 H         1 UNK         0.0888 
     73 H73        32.4477   22.6778   -1.7954 H         1 UNK         0.0888 
     74 H74        31.5211   23.8845   -2.6921 H         1 UNK         0.0888 
     75 H75        31.2473   21.7901   -0.1158 H         1 UNK         0.3017 
     76 H76        30.0205   23.3740    1.8736 H         1 UNK         0.0873 
     77 H77        29.4833   20.3868    1.4890 H         1 UNK         0.0745 
     78 H78        31.0141   20.9576    2.0823 H         1 UNK         0.0745 
     79 H79        30.5453   21.6309    5.7376 H         1 UNK         0.0705 
     80 H80        31.6018   21.1849    4.4238 H         1 UNK         0.0705 
     81 H81        32.5457   22.9100    2.9537 H         1 UNK         0.1334 
     82 H82        31.7593   27.0378    3.8001 H         1 UNK         0.1417 
     83 H83        29.6658   23.9756    5.9468 H         1 UNK         0.1562 
     84 H84        30.2739   27.6891    5.5067 H         1 UNK         0.0748 
     85 H85        30.1449   26.5658    6.8289 H         1 UNK         0.0748 
     86 H86        26.8554   26.3611    3.5310 H         1 UNK         0.0940 
     87 H87        28.5038   25.8628    3.3549 H         1 UNK         0.0940 
     88 H88        29.0154   28.5012    3.6758 H         1 UNK         0.0703 
     89 H89        28.7295   26.8877    1.3704 H         1 UNK         0.3081 
     90 H90        29.7496   29.1697   -1.0673 H         1 UNK         0.0719 
     91 H91        31.9655   28.7141   -0.1123 H         1 UNK         0.0809 
     92 H92        31.4796   27.1035    0.3853 H         1 UNK         0.0809 
     93 H93        31.6348   27.4925   -1.3260 H         1 UNK         0.0809 
     94 H94        29.4263   26.2845   -0.8739 H         1 UNK         0.2990 
     95 H95        26.0217   26.4039   -2.1193 H         1 UNK         0.0690 
     96 H96        27.8216   26.2188   -3.8679 H         1 UNK         0.0788 
     97 H97        27.1069   24.6640   -3.4752 H         1 UNK         0.0788 
     98 H98        28.6951   25.0882   -2.8412 H         1 UNK         0.0788 
     99 H99        27.2909   24.1714   -0.9855 H         1 UNK         0.2993 
    100 H100       25.8868   24.3999    2.3026 H         1 UNK         0.0949 
    101 H101       25.1233   22.1572    1.5353 H         1 UNK         0.0767 
    102 H102       24.1986   23.4562    0.7987 H         1 UNK         0.0767 
    103 H103       25.4169   22.6150   -0.1412 H         1 UNK         0.0767 
    104 H104       27.9263   23.6210    2.5058 H         1 UNK         0.3013 
    105 H105       26.1874   27.9802    1.5043 H         1 UNK         0.3121 
    106 H106       24.4440   29.8488    2.7402 H         1 UNK         0.0774 
    107 H107       23.2116   29.6917    0.5601 H         1 UNK         0.0815 
    108 H108       24.5793   28.8467   -0.1558 H         1 UNK         0.0815 
    109 H109       23.6687   28.1050    1.1586 H         1 UNK         0.0815 
    110 H110       27.1229   30.3303    0.5073 H         1 UNK         0.2987 
    111 H111       26.4869   33.1384   -0.0532 H         1 UNK         0.0949 
    112 H112       29.0200   31.5291   -0.6716 H         1 UNK         0.0806 
    113 H113       27.6272   31.6548   -1.7447 H         1 UNK         0.0806 
    114 H114       28.5693   33.0829   -1.3487 H         1 UNK         0.0806 
    115 H115       27.5435   31.6191    2.6857 H         1 UNK         0.3010 
    116 H116       28.3898   32.2091    4.6035 H         1 UNK         0.0829 
    117 H117       28.4494   35.1222    3.6664 H         1 UNK         0.0813 
    118 H118       27.0413   34.3109    4.3527 H         1 UNK         0.0813 
    119 H119       28.4825   34.5485    5.3251 H         1 UNK         0.0813 
    120 H120       30.1801   31.3717    2.4522 H         1 UNK         0.3038 
    121 H121       32.7910   32.4642    3.4143 H         1 UNK         0.0769 
    122 H122       32.0849   30.6430    1.0519 H         1 UNK         0.0811 
    123 H123       33.7134   31.1340    1.4972 H         1 UNK         0.0811 
    124 H124       32.5552   32.3338    0.9431 H         1 UNK         0.0811 
    125 H125       34.3796   30.8237    4.0552 H         1 UNK         0.3204 
    126 H126       33.1890   28.3739    5.2980 H         1 UNK         0.0748 
    127 H127       34.8277   28.6993    7.1324 H         1 UNK         0.0771 
    128 H128       35.4153   30.1833    6.3920 H         1 UNK         0.0771 
    129 H129       33.7711   30.0961    7.0210 H         1 UNK         0.0771 
    130 H130       34.4109   26.5234    5.1435 H         1 UNK         0.2980 
    131 H131       36.5046   26.4142    3.0928 H         1 UNK         0.0545 
    132 H132       38.2933   26.4469    6.6781 H         1 UNK         0.3459 
    133 H133       36.6613   27.0268    6.4662 H         1 UNK         0.3459 
    134 H134       34.7791   24.3554    4.5241 H         1 UNK         0.0616 
    135 H135       36.2778   23.8312    3.8269 H         1 UNK         0.0616 
    136 H136       33.5386   26.5060    2.3151 H         1 UNK         0.0634 
    137 H137       32.7665   25.3771    1.2342 H         1 UNK         0.0634 
@<TRIPOS>BOND
     1    1    2 1    
     2    1   72 1    
     3    1   73 1    
     4    1   74 1    
     5    2    3 2    
     6    2    4 am   BACKBONE|DICT|INTERRES
     7    4    5 1    
     8    4   75 1    
     9    5    6 1    
    10    5   35 1    
    11    5   76 1    
    12    6    7 1    
    13    6   77 1    
    14    6   78 1    
    15    7    8 1    
    16    8    9 1    
    17    8   79 1    
    18    8   80 1    
    19    9   10 ar   
    20    9   14 ar   
    21   10   11 ar   
    22   10   81 1    
    23   11   12 ar   
    24   11   71 1    
    25   12   13 ar   
    26   12   82 1    
    27   13   14 ar   
    28   13   15 1    
    29   14   83 1    
    30   15   16 1    
    31   15   84 1    
    32   15   85 1    
    33   16   17 1    
    34   17   18 1    
    35   17   86 1    
    36   17   87 1    
    37   18   19 1    
    38   18   37 1    
    39   18   88 1    
    40   19   20 am   BACKBONE|DICT|INTERRES
    41   19   89 1    
    42   20   21 2    
    43   20   22 1    
    44   22   23 1    
    45   22   24 1    
    46   22   90 1    
    47   23   91 1    
    48   23   92 1    
    49   23   93 1    
    50   24   25 am   BACKBONE|DICT|INTERRES
    51   24   94 1    
    52   25   26 2    
    53   25   27 1    
    54   27   28 1    
    55   27   29 1    
    56   27   95 1    
    57   28   96 1    
    58   28   97 1    
    59   28   98 1    
    60   29   30 am   BACKBONE|DICT|INTERRES
    61   29   99 1    
    62   30   31 2    
    63   30   32 1    
    64   32   33 1    
    65   32   34 1    
    66   32  100 1    
    67   33  101 1    
    68   33  102 1    
    69   33  103 1    
    70   34   35 am   BACKBONE|DICT|INTERRES
    71   34  104 1    
    72   35   36 2    
    73   37   38 2    
    74   37   39 am   BACKBONE|DICT|INTERRES
    75   39   40 1    
    76   39  105 1    
    77   40   41 1    
    78   40   42 1    
    79   40  106 1    
    80   41  107 1    
    81   41  108 1    
    82   41  109 1    
    83   42   43 2    
    84   42   44 am   BACKBONE|DICT|INTERRES
    85   44   45 1    
    86   44  110 1    
    87   45   46 1    
    88   45   47 1    
    89   45  111 1    
    90   46  112 1    
    91   46  113 1    
    92   46  114 1    
    93   47   48 2    
    94   47   49 am   BACKBONE|DICT|INTERRES
    95   49   50 1    
    96   49  115 1    
    97   50   51 1    
    98   50   52 1    
    99   50  116 1    
   100   51  117 1    
   101   51  118 1    
   102   51  119 1    
   103   52   53 2    
   104   52   54 am   BACKBONE|DICT|INTERRES
   105   54   55 1    
   106   54  120 1    
   107   55   56 1    
   108   55   57 1    
   109   55  121 1    
   110   56  122 1    
   111   56  123 1    
   112   56  124 1    
   113   57   58 2    
   114   57   59 am   BACKBONE|DICT|INTERRES
   115   59   60 1    
   116   59  125 1    
   117   60   61 1    
   118   60   62 1    
   119   60  126 1    
   120   61  127 1    
   121   61  128 1    
   122   61  129 1    
   123   62   63 2    
   124   62   64 am   BACKBONE|DICT|INTERRES
   125   64   65 1    
   126   64  130 1    
   127   65   66 1    
   128   65   69 1    
   129   65  131 1    
   130   66   67 am   BACKBONE|DICT|INTERRES
   131   66   68 2    
   132   67  132 1    
   133   67  133 1    
   134   69   70 1    
   135   69  134 1    
   136   69  135 1    
   137   70   71 1    
   138   71  136 1    
   139   71  137 1    
@<TRIPOS>SUBSTRUCTURE
     1 UNK         1 GROUP             0       ****    0 ROOT    
