@<TRIPOS>MOLECULE
3R136
137   139    1
SMALL
USER_CHARGES


@<TRIPOS>ATOM
      1 CA         26.6102   27.6094    2.8307 C.3       0 UNK        -0.1979 
      2 C          27.1802   26.2525    2.4501 C.2       0 UNK         0.4864 
      3 O          27.4492   26.0134    1.2716 O.2       0 UNK        -0.5359 
      4 N          27.3413   25.3603    3.4411 N.am      1 UNK        -0.4318 
      5 CA         27.8175   23.9732    3.3090 C.3       1 UNK         0.0824 
      6 C6         29.3117   23.8696    2.8968 C.3       12 UNK        -0.0944 
      7 S7         30.4377   24.5550    4.1628 S.3       12 UNK        -0.2672 
      8 C8         30.7842   26.2383    3.5561 C.3       12 UNK         0.0333 
      9 C9         31.7476   26.2529    2.3796 C.ar      12 UNK        -0.0807 
     10 C10        33.1250   26.3377    2.5987 C.ar      12 UNK        -0.0894 
     11 C11        34.0137   26.4003    1.5207 C.ar      12 UNK        -0.0804 
     12 C12        33.5172   26.3679    0.2137 C.ar      12 UNK        -0.0824 
     13 C13        32.1407   26.2765   -0.0160 C.ar      12 UNK        -0.0762 
     14 C14        31.2630   26.2222    1.0702 C.ar      12 UNK        -0.0782 
     15 C15        31.5975   26.2085   -1.4349 C.3       12 UNK         0.0230 
     16 S16        31.3833   27.8493   -2.1966 S.3       12 UNK        -0.2608 
     17 C17        30.0904   28.6320   -1.1724 C.3       12 UNK        -0.0989 
     18 CA         28.6521   28.4569   -1.7315 C.3       5 UNK         0.0716 
     19 N          28.1551   27.0908   -1.5704 N.am      5 UNK        -0.4135 
     20 C          28.0305   26.1831   -2.5457 C.2       4 UNK         0.5031 
     21 O          28.3955   26.3618   -3.7085 O.2       4 UNK        -0.5229 
     22 CA         27.3752   24.8456   -2.1655 C.3       4 UNK         0.0329 
     23 CB         28.4186   23.8577   -1.6208 C.3       4 UNK        -0.2001 
     24 N          26.3154   25.0218   -1.1745 N.am      4 UNK        -0.4303 
     25 C          25.0815   25.4624   -1.4508 C.2       3 UNK         0.5044 
     26 O          24.6842   25.7019   -2.5929 O.2       3 UNK        -0.5152 
     27 CA         24.1420   25.6775   -0.2460 C.3       3 UNK         0.0319 
     28 CB         22.6564   25.7855   -0.6518 C.3       3 UNK        -0.2001 
     29 N          24.3184   24.6823    0.8204 N.am      3 UNK        -0.4354 
     30 C          24.1653   23.3502    0.7358 C.2       2 UNK         0.4964 
     31 O          23.8122   22.7576   -0.2852 O.2       2 UNK        -0.5047 
     32 CA         24.4557   22.5585    2.0286 C.3       2 UNK         0.0288 
     33 CB         24.6154   21.0401    1.7925 C.3       2 UNK        -0.2113 
     34 N          25.5931   23.1085    2.7824 N.am      2 UNK        -0.4145 
     35 C          26.8765   23.1653    2.3875 C.2       1 UNK         0.5006 
     36 O          27.3006   22.6710    1.3418 O.2       1 UNK        -0.5103 
     37 C          27.6813   29.3981   -0.9977 C.2       5 UNK         0.5055 
     38 O          26.8871   28.9486   -0.1677 O.2       5 UNK        -0.5220 
     39 N          27.7870   30.7012   -1.2911 N.am      6 UNK        -0.4450 
     40 CA         27.1340   31.7628   -0.5178 C.3       6 UNK         0.0367 
     41 CB         27.0704   33.0467   -1.3610 C.3       6 UNK        -0.1929 
     42 C          27.8527   32.0287    0.8195 C.2       6 UNK         0.5070 
     43 O          27.2053   32.4317    1.7862 O.2       6 UNK        -0.5237 
     44 N          29.1743   31.8040    0.8481 N.am      7 UNK        -0.4739 
     45 CA         30.0152   31.8837    2.0422 C.3       7 UNK         0.0276 
     46 CB         31.4877   31.9886    1.6109 C.3       7 UNK        -0.1927 
     47 C          29.8148   30.6577    2.9469 C.2       7 UNK         0.5013 
     48 O          29.6076   29.5522    2.4434 O.2       7 UNK        -0.5193 
     49 N          29.9287   30.8748    4.2591 N.am      8 UNK        -0.4253 
     50 CA         29.8604   29.8567    5.3027 C.3       8 UNK         0.0242 
     51 CB         28.4249   29.7807    5.8519 C.3       8 UNK        -0.2000 
     52 C          30.8641   30.2248    6.4022 C.2       8 UNK         0.4948 
     53 O          31.3593   31.3561    6.4199 O.2       8 UNK        -0.5275 
     54 N          31.1612   29.2630    7.2878 N.am      9 UNK        -0.4246 
     55 CA         32.1057   29.3128    8.4193 C.3       9 UNK         0.0261 
     56 CB         31.7163   30.3992    9.4415 C.3       9 UNK        -0.1959 
     57 C          33.5891   29.4335    8.0157 C.2       9 UNK         0.5033 
     58 O          34.4284   28.7439    8.5980 O.2       9 UNK        -0.5390 
     59 N          33.8864   30.2773    7.0212 N.am      10 UNK        -0.4215 
     60 CA         35.1810   30.3903    6.3490 C.3       10 UNK         0.0240 
     61 CB         35.1381   31.5988    5.3988 C.3       10 UNK        -0.1982 
     62 C          35.5342   29.1096    5.5706 C.2       10 UNK         0.4970 
     63 O          34.6308   28.3689    5.1766 O.2       10 UNK        -0.4916 
     64 N          36.8419   28.8964    5.3666 N.am      11 UNK        -0.4279 
     65 CA         37.4852   27.7719    4.6544 C.3       11 UNK         0.1003 
     66 C          37.1352   26.3252    5.1278 C.2       11 UNK         0.5709 
     67 N          36.4436   26.1324    6.2438 N.am      11 UNK        -0.7358 
     68 O          37.5522   25.3513    4.5053 O.2       11 UNK        -0.4999 
     69 C69        37.5489   27.9496    3.1021 C.3       12 UNK        -0.0954 
     70 S70        35.9620   28.2051    2.2378 S.3       12 UNK        -0.2268 
     71 C71        35.5069   26.5052    1.7826 C.3       12 UNK         0.0203 
     72 H72        27.3051   28.3980    2.5478 H         1 UNK         0.0888 
     73 H73        25.6750   27.7845    2.3000 H         1 UNK         0.0888 
     74 H74        26.4179   27.6907    3.8999 H         1 UNK         0.0888 
     75 H75        27.1041   25.6366    4.3837 H         1 UNK         0.3017 
     76 H76        27.7237   23.5184    4.2967 H         1 UNK         0.0873 
     77 H77        29.5911   22.8223    2.7680 H         1 UNK         0.0745 
     78 H78        29.4835   24.3370    1.9297 H         1 UNK         0.0745 
     79 H79        31.2154   26.8115    4.3776 H         1 UNK         0.0705 
     80 H80        29.8571   26.7465    3.2930 H         1 UNK         0.0705 
     81 H81        33.5085   26.3751    3.6100 H         1 UNK         0.1334 
     82 H82        34.1993   26.4156   -0.6243 H         1 UNK         0.1417 
     83 H83        30.1969   26.1711    0.8948 H         1 UNK         0.1562 
     84 H84        30.6503   25.6736   -1.4494 H         1 UNK         0.0748 
     85 H85        32.2774   25.6239   -2.0564 H         1 UNK         0.0748 
     86 H86        30.3597   29.6884   -1.1352 H         1 UNK         0.0940 
     87 H87        30.1490   28.2938   -0.1386 H         1 UNK         0.0940 
     88 H88        28.6362   28.7371   -2.7870 H         1 UNK         0.0703 
     89 H89        27.7734   26.8844   -0.6509 H         1 UNK         0.3081 
     90 H90        26.9422   24.4151   -3.0711 H         1 UNK         0.0719 
     91 H91        29.2362   23.7180   -2.3292 H         1 UNK         0.0809 
     92 H92        28.8488   24.2024   -0.6794 H         1 UNK         0.0809 
     93 H93        27.9750   22.8783   -1.4401 H         1 UNK         0.0809 
     94 H94        26.5875   24.9253   -0.2009 H         1 UNK         0.2990 
     95 H95        24.4339   26.6368    0.1847 H         1 UNK         0.0690 
     96 H96        22.3051   24.8789   -1.1456 H         1 UNK         0.0788 
     97 H97        22.4986   26.6141   -1.3434 H         1 UNK         0.0788 
     98 H98        22.0200   25.9642    0.2148 H         1 UNK         0.0788 
     99 H99        24.6222   25.0542    1.7080 H         1 UNK         0.2993 
    100 H100       23.5770   22.6950    2.6612 H         1 UNK         0.0949 
    101 H101       25.4261   20.8182    1.0980 H         1 UNK         0.0767 
    102 H102       24.8174   20.5125    2.7246 H         1 UNK         0.0767 
    103 H103       23.7043   20.6137    1.3710 H         1 UNK         0.0767 
    104 H104       25.3553   23.5484    3.6611 H         1 UNK         0.3013 
    105 H105       28.4259   30.9937   -2.0172 H         1 UNK         0.3121 
    106 H106       26.1109   31.4547   -0.2898 H         1 UNK         0.0774 
    107 H107       26.5663   33.8452   -0.8147 H         1 UNK         0.0815 
    108 H108       28.0646   33.4103   -1.6239 H         1 UNK         0.0815 
    109 H109       26.5143   32.8877   -2.2850 H         1 UNK         0.0815 
    110 H110       29.6158   31.4517    0.0141 H         1 UNK         0.2987 
    111 H111       29.7450   32.7850    2.5975 H         1 UNK         0.0949 
    112 H112       31.6574   32.8630    0.9824 H         1 UNK         0.0806 
    113 H113       32.1432   32.0822    2.4781 H         1 UNK         0.0806 
    114 H114       31.8096   31.1062    1.0555 H         1 UNK         0.0806 
    115 H115       30.2005   31.7899    4.5973 H         1 UNK         0.3010 
    116 H116       30.1479   28.8881    4.8907 H         1 UNK         0.0829 
    117 H117       27.7112   29.5546    5.0599 H         1 UNK         0.0813 
    118 H118       28.3296   28.9989    6.6062 H         1 UNK         0.0813 
    119 H119       28.1213   30.7210    6.3140 H         1 UNK         0.0813 
    120 H120       30.7141   28.3652    7.1612 H         1 UNK         0.3038 
    121 H121       32.0041   28.3490    8.9211 H         1 UNK         0.0769 
    122 H122       32.3569   30.3487   10.3230 H         1 UNK         0.0811 
    123 H123       31.8139   31.4045    9.0308 H         1 UNK         0.0811 
    124 H124       30.6882   30.2740    9.7809 H         1 UNK         0.0811 
    125 H125       33.1091   30.7993    6.6230 H         1 UNK         0.3204 
    126 H126       35.9436   30.5614    7.1116 H         1 UNK         0.0748 
    127 H127       36.0964   31.7408    4.8974 H         1 UNK         0.0771 
    128 H128       34.3805   31.4729    4.6235 H         1 UNK         0.0771 
    129 H129       34.9157   32.5202    5.9377 H         1 UNK         0.0771 
    130 H130       37.4893   29.5684    5.7520 H         1 UNK         0.2980 
    131 H131       38.5229   27.8554    4.9793 H         1 UNK         0.0545 
    132 H132       36.2476   25.1915    6.5454 H         1 UNK         0.3459 
    133 H133       36.0708   26.9166    6.7556 H         1 UNK         0.3459 
    134 H134       38.0806   27.1201    2.6328 H         1 UNK         0.0616 
    135 H135       38.1571   28.8282    2.8834 H         1 UNK         0.0616 
    136 H136       36.0819   26.1988    0.9076 H         1 UNK         0.0634 
    137 H137       35.7721   25.8173    2.5845 H         1 UNK         0.0634 
@<TRIPOS>BOND
     1    1    2 1    
     2    1   72 1    
     3    1   73 1    
     4    1   74 1    
     5    2    3 2    
     6    2    4 am   BACKBONE|DICT|INTERRES
     7    4    5 1    
     8    4   75 1    
     9    5    6 1    
    10    5   35 1    
    11    5   76 1    
    12    6    7 1    
    13    6   77 1    
    14    6   78 1    
    15    7    8 1    
    16    8    9 1    
    17    8   79 1    
    18    8   80 1    
    19    9   10 ar   
    20    9   14 ar   
    21   10   11 ar   
    22   10   81 1    
    23   11   12 ar   
    24   11   71 1    
    25   12   13 ar   
    26   12   82 1    
    27   13   14 ar   
    28   13   15 1    
    29   14   83 1    
    30   15   16 1    
    31   15   84 1    
    32   15   85 1    
    33   16   17 1    
    34   17   18 1    
    35   17   86 1    
    36   17   87 1    
    37   18   19 1    
    38   18   37 1    
    39   18   88 1    
    40   19   20 am   BACKBONE|DICT|INTERRES
    41   19   89 1    
    42   20   21 2    
    43   20   22 1    
    44   22   23 1    
    45   22   24 1    
    46   22   90 1    
    47   23   91 1    
    48   23   92 1    
    49   23   93 1    
    50   24   25 am   BACKBONE|DICT|INTERRES
    51   24   94 1    
    52   25   26 2    
    53   25   27 1    
    54   27   28 1    
    55   27   29 1    
    56   27   95 1    
    57   28   96 1    
    58   28   97 1    
    59   28   98 1    
    60   29   30 am   BACKBONE|DICT|INTERRES
    61   29   99 1    
    62   30   31 2    
    63   30   32 1    
    64   32   33 1    
    65   32   34 1    
    66   32  100 1    
    67   33  101 1    
    68   33  102 1    
    69   33  103 1    
    70   34   35 am   BACKBONE|DICT|INTERRES
    71   34  104 1    
    72   35   36 2    
    73   37   38 2    
    74   37   39 am   BACKBONE|DICT|INTERRES
    75   39   40 1    
    76   39  105 1    
    77   40   41 1    
    78   40   42 1    
    79   40  106 1    
    80   41  107 1    
    81   41  108 1    
    82   41  109 1    
    83   42   43 2    
    84   42   44 am   BACKBONE|DICT|INTERRES
    85   44   45 1    
    86   44  110 1    
    87   45   46 1    
    88   45   47 1    
    89   45  111 1    
    90   46  112 1    
    91   46  113 1    
    92   46  114 1    
    93   47   48 2    
    94   47   49 am   BACKBONE|DICT|INTERRES
    95   49   50 1    
    96   49  115 1    
    97   50   51 1    
    98   50   52 1    
    99   50  116 1    
   100   51  117 1    
   101   51  118 1    
   102   51  119 1    
   103   52   53 2    
   104   52   54 am   BACKBONE|DICT|INTERRES
   105   54   55 1    
   106   54  120 1    
   107   55   56 1    
   108   55   57 1    
   109   55  121 1    
   110   56  122 1    
   111   56  123 1    
   112   56  124 1    
   113   57   58 2    
   114   57   59 am   BACKBONE|DICT|INTERRES
   115   59   60 1    
   116   59  125 1    
   117   60   61 1    
   118   60   62 1    
   119   60  126 1    
   120   61  127 1    
   121   61  128 1    
   122   61  129 1    
   123   62   63 2    
   124   62   64 am   BACKBONE|DICT|INTERRES
   125   64   65 1    
   126   64  130 1    
   127   65   66 1    
   128   65   69 1    
   129   65  131 1    
   130   66   67 am   BACKBONE|DICT|INTERRES
   131   66   68 2    
   132   67  132 1    
   133   67  133 1    
   134   69   70 1    
   135   69  134 1    
   136   69  135 1    
   137   70   71 1    
   138   71  136 1    
   139   71  137 1    
@<TRIPOS>SUBSTRUCTURE
     1 UNK         1 GROUP             0       ****    0 ROOT    
