@<TRIPOS>MOLECULE
3R136
137   139    1
SMALL
USER_CHARGES


@<TRIPOS>ATOM
      1 CA         29.3034   21.3897   -1.7172 C.3       0 UNK        -0.1979 
      2 C          28.6855   21.7239   -0.3672 C.2       0 UNK         0.4864 
      3 O          27.8435   20.9683    0.1204 O.2       0 UNK        -0.5359 
      4 N          29.1090   22.8471    0.2289 N.am      1 UNK        -0.4318 
      5 CA         28.6058   23.4350    1.4765 C.3       1 UNK         0.0824 
      6 C6         28.6892   22.4636    2.6892 C.3       12 UNK        -0.0944 
      7 S7         28.9715   23.3061    4.2859 S.3       12 UNK        -0.2672 
      8 C8         30.7819   23.1934    4.4669 C.3       12 UNK         0.0333 
      9 C9         31.4815   24.3006    3.6940 C.ar      12 UNK        -0.0807 
     10 C10        31.7232   25.5336    4.3066 C.ar      12 UNK        -0.0894 
     11 C11        32.3388   26.5739    3.6004 C.ar      12 UNK        -0.0804 
     12 C12        32.6877   26.3734    2.2625 C.ar      12 UNK        -0.0824 
     13 C13        32.4248   25.1544    1.6303 C.ar      12 UNK        -0.0762 
     14 C14        31.8565   24.1081    2.3614 C.ar      12 UNK        -0.0782 
     15 C15        32.6978   24.9918    0.1414 C.3       12 UNK         0.0230 
     16 S16        31.1646   25.1418   -0.8403 S.3       12 UNK        -0.2608 
     17 C17        30.5242   26.7576   -0.2821 C.3       12 UNK        -0.0989 
     18 CA         29.6621   27.4758   -1.3472 C.3       5 UNK         0.0716 
     19 N          28.4466   26.7207   -1.6755 N.am      5 UNK        -0.4135 
     20 C          27.9181   26.6412   -2.9039 C.2       4 UNK         0.5031 
     21 O          28.4224   27.1451   -3.9082 O.2       4 UNK        -0.5229 
     22 CA         26.5813   25.8921   -3.0299 C.3       4 UNK         0.0329 
     23 CB         26.8133   24.3753   -3.1311 C.3       4 UNK        -0.2001 
     24 N          25.6618   26.1984   -1.9272 N.am      4 UNK        -0.4303 
     25 C          25.0536   27.3874   -1.7779 C.2       3 UNK         0.5044 
     26 O          25.2015   28.3250   -2.5618 O.2       3 UNK        -0.5152 
     27 CA         24.1281   27.5946   -0.5628 C.3       3 UNK         0.0319 
     28 CB         22.6546   27.5110   -0.9933 C.3       3 UNK        -0.2001 
     29 N          24.3499   26.6698    0.5502 N.am      3 UNK        -0.4354 
     30 C          25.4640   26.5969    1.2886 C.2       2 UNK         0.4964 
     31 O          26.4596   27.2969    1.0890 O.2       2 UNK        -0.5047 
     32 CA         25.5028   25.5372    2.4100 C.3       2 UNK         0.0288 
     33 CB         24.2728   24.6009    2.4447 C.3       2 UNK        -0.2113 
     34 N          26.7359   24.7438    2.3562 N.am      2 UNK        -0.4145 
     35 C          27.2200   24.0888    1.2912 C.2       1 UNK         0.5006 
     36 O          26.6465   24.0498    0.1983 O.2       1 UNK        -0.5103 
     37 C          29.3370   28.9080   -0.8704 C.2       5 UNK         0.5055 
     38 O          30.2525   29.7298   -0.8140 O.2       5 UNK        -0.5220 
     39 N          28.0717   29.1703   -0.5031 N.am      6 UNK        -0.4450 
     40 CA         27.5793   30.3514    0.2179 C.3       6 UNK         0.0367 
     41 CB         27.7770   31.6497   -0.5938 C.3       6 UNK        -0.1929 
     42 C          28.1689   30.4116    1.6411 C.2       6 UNK         0.5070 
     43 O          28.6711   31.4511    2.0704 O.2       6 UNK        -0.5237 
     44 N          28.1170   29.2646    2.3301 N.am      7 UNK        -0.4739 
     45 CA         28.5913   29.0708    3.6992 C.3       7 UNK         0.0276 
     46 CB         28.7479   27.5577    3.9355 C.3       7 UNK        -0.1927 
     47 C          27.6142   29.6849    4.7273 C.2       7 UNK         0.5013 
     48 O          26.4205   29.7731    4.4341 O.2       7 UNK        -0.5193 
     49 N          28.0570   30.0546    5.9392 N.am      8 UNK        -0.4253 
     50 CA         29.4402   30.0834    6.4250 C.3       8 UNK         0.0242 
     51 CB         29.4268   30.1383    7.9612 C.3       8 UNK        -0.2000 
     52 C          30.2130   31.2843    5.8560 C.2       8 UNK         0.4948 
     53 O          29.6146   32.3228    5.5673 O.2       8 UNK        -0.5275 
     54 N          31.5298   31.1142    5.7207 N.am      9 UNK        -0.4246 
     55 CA         32.4700   32.0811    5.1615 C.3       9 UNK         0.0261 
     56 CB         32.3489   32.1046    3.6201 C.3       9 UNK        -0.1959 
     57 C          33.8754   31.7077    5.6600 C.2       9 UNK         0.5033 
     58 O          33.9990   31.0978    6.7260 O.2       9 UNK        -0.5390 
     59 N          34.9143   32.0322    4.8804 N.am      10 UNK        -0.4215 
     60 CA         36.2931   31.5866    5.0980 C.3       10 UNK         0.0240 
     61 CB         37.2523   32.5466    4.3691 C.3       10 UNK        -0.1982 
     62 C          36.4579   30.1229    4.6426 C.2       10 UNK         0.4970 
     63 O          37.0721   29.8639    3.6063 O.2       10 UNK        -0.4916 
     64 N          35.8538   29.2009    5.4015 N.am      11 UNK        -0.4279 
     65 CA         35.7782   27.7624    5.0957 C.3       11 UNK         0.1003 
     66 C          37.1263   26.9898    5.1967 C.2       11 UNK         0.5709 
     67 N          38.1692   27.5456    5.8023 N.am      11 UNK        -0.7358 
     68 O          37.2276   25.8655    4.7118 O.2       11 UNK        -0.4999 
     69 C69        34.6755   27.0456    5.9248 C.3       12 UNK        -0.0954 
     70 S70        33.0598   27.8979    5.9854 S.3       12 UNK        -0.2268 
     71 C71        32.5688   27.9442    4.2308 C.3       12 UNK         0.0203 
     72 H72        28.5278   21.3395   -2.4810 H         1 UNK         0.0888 
     73 H73        30.0353   22.1359   -2.0272 H         1 UNK         0.0888 
     74 H74        29.8031   20.4224   -1.6729 H         1 UNK         0.0888 
     75 H75        29.7853   23.4239   -0.2567 H         1 UNK         0.3017 
     76 H76        29.2757   24.2733    1.6646 H         1 UNK         0.0873 
     77 H77        29.4977   21.7463    2.5420 H         1 UNK         0.0745 
     78 H78        27.7834   21.8590    2.7665 H         1 UNK         0.0745 
     79 H79        31.1380   22.2129    4.1476 H         1 UNK         0.0705 
     80 H80        31.0311   23.2725    5.5262 H         1 UNK         0.0705 
     81 H81        31.4148   25.6859    5.3316 H         1 UNK         0.1334 
     82 H82        33.1303   27.1832    1.6986 H         1 UNK         0.1417 
     83 H83        31.6549   23.1627    1.8765 H         1 UNK         0.1562 
     84 H84        33.1494   24.0167   -0.0469 H         1 UNK         0.0748 
     85 H85        33.4192   25.7348   -0.2026 H         1 UNK         0.0748 
     86 H86        31.3813   27.3831   -0.0260 H         1 UNK         0.0940 
     87 H87        29.9635   26.6143    0.6439 H         1 UNK         0.0940 
     88 H88        30.2753   27.5819   -2.2449 H         1 UNK         0.0703 
     89 H89        27.9686   26.2622   -0.9127 H         1 UNK         0.3081 
     90 H90        26.1063   26.2161   -3.9587 H         1 UNK         0.0719 
     91 H91        27.3980   24.1332   -4.0194 H         1 UNK         0.0809 
     92 H92        27.3606   23.9864   -2.2731 H         1 UNK         0.0809 
     93 H93        25.8718   23.8310   -3.2047 H         1 UNK         0.0809 
     94 H94        25.5264   25.4790   -1.2268 H         1 UNK         0.2990 
     95 H95        24.3152   28.6039   -0.1897 H         1 UNK         0.0690 
     96 H96        21.9846   27.7559   -0.1688 H         1 UNK         0.0788 
     97 H97        22.3956   26.5146   -1.3540 H         1 UNK         0.0788 
     98 H98        22.4416   28.2147   -1.7995 H         1 UNK         0.0788 
     99 H99        23.5957   26.0339    0.7663 H         1 UNK         0.2993 
    100 H100       25.5263   26.0934    3.3481 H         1 UNK         0.0949 
    101 H101       23.3493   25.1585    2.6060 H         1 UNK         0.0767 
    102 H102       24.1659   24.0282    1.5223 H         1 UNK         0.0767 
    103 H103       24.3536   23.8856    3.2635 H         1 UNK         0.0767 
    104 H104       27.2867   24.7224    3.2049 H         1 UNK         0.3013 
    105 H105       27.4131   28.4036   -0.5402 H         1 UNK         0.3121 
    106 H106       26.5049   30.2055    0.3407 H         1 UNK         0.0774 
    107 H107       27.3536   31.5598   -1.5940 H         1 UNK         0.0815 
    108 H108       27.2814   32.4891   -0.1049 H         1 UNK         0.0815 
    109 H109       28.8295   31.9144   -0.6956 H         1 UNK         0.0815 
    110 H110       27.6115   28.4867    1.9126 H         1 UNK         0.2987 
    111 H111       29.5657   29.5523    3.7709 H         1 UNK         0.0949 
    112 H112       29.4010   27.1031    3.1904 H         1 UNK         0.0806 
    113 H113       29.1786   27.3449    4.9137 H         1 UNK         0.0806 
    114 H114       27.7866   27.0467    3.8905 H         1 UNK         0.0806 
    115 H115       27.3800   30.4596    6.5684 H         1 UNK         0.3010 
    116 H116       29.9456   29.1635    6.1278 H         1 UNK         0.0829 
    117 H117       30.4412   30.1275    8.3627 H         1 UNK         0.0813 
    118 H118       28.9408   31.0428    8.3298 H         1 UNK         0.0813 
    119 H119       28.9048   29.2799    8.3849 H         1 UNK         0.0813 
    120 H120       31.9724   30.2812    6.0923 H         1 UNK         0.3038 
    121 H121       32.2369   33.0715    5.5577 H         1 UNK         0.0769 
    122 H122       32.9553   32.8972    3.1809 H         1 UNK         0.0811 
    123 H123       31.3220   32.2908    3.3036 H         1 UNK         0.0811 
    124 H124       32.6603   31.1581    3.1759 H         1 UNK         0.0811 
    125 H125       34.7295   32.5093    4.0098 H         1 UNK         0.3204 
    126 H126       36.5235   31.6326    6.1648 H         1 UNK         0.0748 
    127 H127       38.2904   32.2437    4.5128 H         1 UNK         0.0771 
    128 H128       37.0656   32.5720    3.2946 H         1 UNK         0.0771 
    129 H129       37.1579   33.5641    4.7492 H         1 UNK         0.0771 
    130 H130       35.3159   29.5174    6.2003 H         1 UNK         0.2980 
    131 H131       35.4897   27.6866    4.0461 H         1 UNK         0.0545 
    132 H132       38.0956   28.4663    6.2036 H         1 UNK         0.3459 
    133 H133       39.0374   27.0368    5.8579 H         1 UNK         0.3459 
    134 H134       34.5105   26.0368    5.5417 H         1 UNK         0.0616 
    135 H135       35.0070   26.9237    6.9576 H         1 UNK         0.0616 
    136 H136       31.6440   28.5131    4.1505 H         1 UNK         0.0634 
    137 H137       33.3168   28.5084    3.6725 H         1 UNK         0.0634 
@<TRIPOS>BOND
     1    1    2 1    
     2    1   72 1    
     3    1   73 1    
     4    1   74 1    
     5    2    3 2    
     6    2    4 am   BACKBONE|DICT|INTERRES
     7    4    5 1    
     8    4   75 1    
     9    5    6 1    
    10    5   35 1    
    11    5   76 1    
    12    6    7 1    
    13    6   77 1    
    14    6   78 1    
    15    7    8 1    
    16    8    9 1    
    17    8   79 1    
    18    8   80 1    
    19    9   10 ar   
    20    9   14 ar   
    21   10   11 ar   
    22   10   81 1    
    23   11   12 ar   
    24   11   71 1    
    25   12   13 ar   
    26   12   82 1    
    27   13   14 ar   
    28   13   15 1    
    29   14   83 1    
    30   15   16 1    
    31   15   84 1    
    32   15   85 1    
    33   16   17 1    
    34   17   18 1    
    35   17   86 1    
    36   17   87 1    
    37   18   19 1    
    38   18   37 1    
    39   18   88 1    
    40   19   20 am   BACKBONE|DICT|INTERRES
    41   19   89 1    
    42   20   21 2    
    43   20   22 1    
    44   22   23 1    
    45   22   24 1    
    46   22   90 1    
    47   23   91 1    
    48   23   92 1    
    49   23   93 1    
    50   24   25 am   BACKBONE|DICT|INTERRES
    51   24   94 1    
    52   25   26 2    
    53   25   27 1    
    54   27   28 1    
    55   27   29 1    
    56   27   95 1    
    57   28   96 1    
    58   28   97 1    
    59   28   98 1    
    60   29   30 am   BACKBONE|DICT|INTERRES
    61   29   99 1    
    62   30   31 2    
    63   30   32 1    
    64   32   33 1    
    65   32   34 1    
    66   32  100 1    
    67   33  101 1    
    68   33  102 1    
    69   33  103 1    
    70   34   35 am   BACKBONE|DICT|INTERRES
    71   34  104 1    
    72   35   36 2    
    73   37   38 2    
    74   37   39 am   BACKBONE|DICT|INTERRES
    75   39   40 1    
    76   39  105 1    
    77   40   41 1    
    78   40   42 1    
    79   40  106 1    
    80   41  107 1    
    81   41  108 1    
    82   41  109 1    
    83   42   43 2    
    84   42   44 am   BACKBONE|DICT|INTERRES
    85   44   45 1    
    86   44  110 1    
    87   45   46 1    
    88   45   47 1    
    89   45  111 1    
    90   46  112 1    
    91   46  113 1    
    92   46  114 1    
    93   47   48 2    
    94   47   49 am   BACKBONE|DICT|INTERRES
    95   49   50 1    
    96   49  115 1    
    97   50   51 1    
    98   50   52 1    
    99   50  116 1    
   100   51  117 1    
   101   51  118 1    
   102   51  119 1    
   103   52   53 2    
   104   52   54 am   BACKBONE|DICT|INTERRES
   105   54   55 1    
   106   54  120 1    
   107   55   56 1    
   108   55   57 1    
   109   55  121 1    
   110   56  122 1    
   111   56  123 1    
   112   56  124 1    
   113   57   58 2    
   114   57   59 am   BACKBONE|DICT|INTERRES
   115   59   60 1    
   116   59  125 1    
   117   60   61 1    
   118   60   62 1    
   119   60  126 1    
   120   61  127 1    
   121   61  128 1    
   122   61  129 1    
   123   62   63 2    
   124   62   64 am   BACKBONE|DICT|INTERRES
   125   64   65 1    
   126   64  130 1    
   127   65   66 1    
   128   65   69 1    
   129   65  131 1    
   130   66   67 am   BACKBONE|DICT|INTERRES
   131   66   68 2    
   132   67  132 1    
   133   67  133 1    
   134   69   70 1    
   135   69  134 1    
   136   69  135 1    
   137   70   71 1    
   138   71  136 1    
   139   71  137 1    
@<TRIPOS>SUBSTRUCTURE
     1 UNK         1 GROUP             0       ****    0 ROOT    
