@<TRIPOS>MOLECULE
3R136
137   139    1
SMALL
USER_CHARGES


@<TRIPOS>ATOM
      1 CA         31.4224   21.6551    5.5145 C.3       0 UNK        -0.1979 
      2 C          30.3380   21.2527    4.5262 C.2       0 UNK         0.4864 
      3 O          29.5463   20.3545    4.8179 O.2       0 UNK        -0.5359 
      4 N          30.3055   21.9022    3.3557 N.am      1 UNK        -0.4318 
      5 CA         29.3124   21.6839    2.2984 C.3       1 UNK         0.0824 
      6 C6         29.7197   22.3201    0.9420 C.3       12 UNK        -0.0944 
      7 S7         31.4550   22.0524    0.4272 S.3       12 UNK        -0.2672 
      8 C8         32.3661   23.4463    1.1872 C.3       12 UNK         0.0333 
      9 C9         31.7143   24.7984    0.9327 C.ar      12 UNK        -0.0807 
     10 C10        30.8636   25.3548    1.8930 C.ar      12 UNK        -0.0894 
     11 C11        30.2305   26.5744    1.6552 C.ar      12 UNK        -0.0804 
     12 C12        30.4843   27.2539    0.4638 C.ar      12 UNK        -0.0824 
     13 C13        31.3343   26.7190   -0.5118 C.ar      12 UNK        -0.0762 
     14 C14        31.9462   25.4847   -0.2639 C.ar      12 UNK        -0.0782 
     15 C15        31.5933   27.4155   -1.8514 C.3       12 UNK         0.0230 
     16 S16        31.1807   29.1976   -1.9024 S.3       12 UNK        -0.2608 
     17 C17        29.6499   29.2492   -2.9025 C.3       12 UNK        -0.0989 
     18 CA         28.3016   29.1036   -2.1348 C.3       5 UNK         0.0716 
     19 N          28.0293   27.7358   -1.7026 N.am      5 UNK        -0.4135 
     20 C          27.7114   26.7081   -2.4957 C.2       4 UNK         0.5031 
     21 O          27.6540   26.7877   -3.7238 O.2       4 UNK        -0.5229 
     22 CA         27.3966   25.3568   -1.8242 C.3       4 UNK         0.0329 
     23 CB         28.5866   24.3932   -1.9569 C.3       4 UNK        -0.2001 
     24 N          27.0019   25.4428   -0.4135 N.am      4 UNK        -0.4303 
     25 C          25.8579   25.9844    0.0286 C.2       3 UNK         0.5044 
     26 O          25.0342   26.5343   -0.7049 O.2       3 UNK        -0.5152 
     27 CA         25.5945   25.8645    1.5435 C.3       3 UNK         0.0319 
     28 CB         24.2202   26.4289    1.9616 C.3       3 UNK        -0.2001 
     29 N          25.7624   24.4937    2.0481 N.am      3 UNK        -0.4354 
     30 C          25.1145   23.3869    1.6518 C.2       2 UNK         0.4964 
     31 O          24.2807   23.3630    0.7450 O.2       2 UNK        -0.5047 
     32 CA         25.4722   22.0839    2.3993 C.3       2 UNK         0.0288 
     33 CB         24.5389   20.9142    2.0311 C.3       2 UNK        -0.2113 
     34 N          26.8592   21.6692    2.1662 N.am      2 UNK        -0.4145 
     35 C          27.9360   22.2363    2.7252 C.2       1 UNK         0.5006 
     36 O          27.8712   23.2000    3.4958 O.2       1 UNK        -0.5103 
     37 C          28.1492   30.0329   -0.9139 C.2       5 UNK         0.5055 
     38 O          27.9419   29.5484    0.2029 O.2       5 UNK        -0.5220 
     39 N          28.2716   31.3481   -1.1273 N.am      6 UNK        -0.4450 
     40 CA         28.1713   32.3778   -0.0870 C.3       6 UNK         0.0367 
     41 CB         27.5680   33.6523   -0.7082 C.3       6 UNK        -0.1929 
     42 C          29.5246   32.6416    0.6081 C.2       6 UNK         0.5070 
     43 O          29.9182   33.7987    0.7633 O.2       6 UNK        -0.5237 
     44 N          30.2269   31.5717    1.0061 N.am      7 UNK        -0.4739 
     45 CA         31.5326   31.6421    1.6755 C.3       7 UNK         0.0276 
     46 CB         32.2867   30.3177    1.4780 C.3       7 UNK        -0.1927 
     47 C          31.4470   32.0170    3.1670 C.2       7 UNK         0.5013 
     48 O          32.4463   32.4783    3.7216 O.2       7 UNK        -0.5193 
     49 N          30.2706   31.8254    3.7850 N.am      8 UNK        -0.4253 
     50 CA         29.9279   32.1500    5.1756 C.3       8 UNK         0.0242 
     51 CB         29.7750   33.6790    5.3420 C.3       8 UNK        -0.2000 
     52 C          30.9028   31.5084    6.1826 C.2       8 UNK         0.4948 
     53 O          30.8390   30.2988    6.3984 O.2       8 UNK        -0.5275 
     54 N          31.8070   32.3099    6.7612 N.am      9 UNK        -0.4246 
     55 CA         32.8595   31.8568    7.6747 C.3       9 UNK         0.0261 
     56 CB         33.5566   33.0814    8.2890 C.3       9 UNK        -0.1959 
     57 C          33.8941   30.9218    7.0186 C.2       9 UNK         0.5033 
     58 O          34.5067   30.1215    7.7267 O.2       9 UNK        -0.5390 
     59 N          34.0688   31.0223    5.6927 N.am      10 UNK        -0.4215 
     60 CA         35.0025   30.2058    4.9147 C.3       10 UNK         0.0240 
     61 CB         35.5954   31.0582    3.7772 C.3       10 UNK        -0.1982 
     62 C          34.3947   28.8829    4.4039 C.2       10 UNK         0.4970 
     63 O          35.0785   28.1744    3.6638 O.2       10 UNK        -0.4916 
     64 N          33.1566   28.5457    4.8014 N.am      11 UNK        -0.4279 
     65 CA         32.5201   27.2460    4.5090 C.3       11 UNK         0.1003 
     66 C          33.2141   26.0150    5.1645 C.2       11 UNK         0.5709 
     67 N          34.0330   26.1814    6.1972 N.am      11 UNK        -0.7358 
     68 O          33.0016   24.8877    4.7246 O.2       11 UNK        -0.4999 
     69 C69        31.0091   27.2434    4.8610 C.3       12 UNK        -0.0954 
     70 S70        30.0270   28.3384    3.7882 S.3       12 UNK        -0.2268 
     71 C71        29.2450   27.1459    2.6637 C.3       12 UNK         0.0203 
     72 H72        31.9582   20.7737    5.8659 H         1 UNK         0.0888 
     73 H73        30.9786   22.1521    6.3766 H         1 UNK         0.0888 
     74 H74        32.1484   22.3333    5.0670 H         1 UNK         0.0888 
     75 H75        30.9760   22.6327    3.1769 H         1 UNK         0.3017 
     76 H76        29.2212   20.6045    2.1571 H         1 UNK         0.0873 
     77 H77        29.4876   23.3827    0.9098 H         1 UNK         0.0745 
     78 H78        29.1002   21.8863    0.1553 H         1 UNK         0.0745 
     79 H79        32.4757   23.2753    2.2585 H         1 UNK         0.0705 
     80 H80        33.3816   23.4532    0.7886 H         1 UNK         0.0705 
     81 H81        30.6719   24.8269    2.8165 H         1 UNK         0.1334 
     82 H82        30.0073   28.2049    0.3059 H         1 UNK         0.1417 
     83 H83        32.5958   25.0474   -1.0102 H         1 UNK         0.1562 
     84 H84        31.0492   26.8847   -2.6334 H         1 UNK         0.0748 
     85 H85        32.6517   27.3201   -2.0980 H         1 UNK         0.0748 
     86 H86        29.7185   28.5067   -3.6984 H         1 UNK         0.0940 
     87 H87        29.6552   30.2054   -3.4277 H         1 UNK         0.0940 
     88 H88        27.4967   29.3797   -2.8194 H         1 UNK         0.0703 
     89 H89        27.9993   27.6235   -0.6978 H         1 UNK         0.3081 
     90 H90        26.5565   24.9252   -2.3727 H         1 UNK         0.0719 
     91 H91        29.4350   24.7121   -1.3528 H         1 UNK         0.0809 
     92 H92        28.3136   23.3844   -1.6488 H         1 UNK         0.0809 
     93 H93        28.9290   24.3294   -2.9908 H         1 UNK         0.0809 
     94 H94        27.6200   25.0121    0.2575 H         1 UNK         0.2990 
     95 H95        26.3555   26.4699    2.0358 H         1 UNK         0.0690 
     96 H96        24.0797   26.3716    3.0409 H         1 UNK         0.0788 
     97 H97        23.3991   25.8900    1.4874 H         1 UNK         0.0788 
     98 H98        24.1267   27.4783    1.6790 H         1 UNK         0.0788 
     99 H99        26.4702   24.3662    2.7669 H         1 UNK         0.2993 
    100 H100       25.3429   22.2822    3.4659 H         1 UNK         0.0949 
    101 H101       23.4956   21.1734    2.2170 H         1 UNK         0.0767 
    102 H102       24.6253   20.6422    0.9782 H         1 UNK         0.0767 
    103 H103       24.7603   20.0278    2.6261 H         1 UNK         0.0767 
    104 H104       26.9919   20.9113    1.5117 H         1 UNK         0.3013 
    105 H105       28.4874   31.6744   -2.0585 H         1 UNK         0.3121 
    106 H106       27.4818   32.0387    0.6894 H         1 UNK         0.0774 
    107 H107       26.5968   33.4520   -1.1608 H         1 UNK         0.0815 
    108 H108       28.2171   34.0738   -1.4768 H         1 UNK         0.0815 
    109 H109       27.4152   34.4230    0.0486 H         1 UNK         0.0815 
    110 H110       29.8301   30.6542    0.8489 H         1 UNK         0.2987 
    111 H111       32.1219   32.4271    1.1959 H         1 UNK         0.0949 
    112 H112       31.7063   29.4597    1.8085 H         1 UNK         0.0806 
    113 H113       32.5451   30.1648    0.4318 H         1 UNK         0.0806 
    114 H114       33.2220   30.3035    2.0333 H         1 UNK         0.0806 
    115 H115       29.5380   31.3856    3.2469 H         1 UNK         0.3010 
    116 H116       28.9540   31.6977    5.3693 H         1 UNK         0.0829 
    117 H117       28.9787   34.0600    4.7024 H         1 UNK         0.0813 
    118 H118       29.5112   33.9411    6.3676 H         1 UNK         0.0813 
    119 H119       30.6856   34.2198    5.0814 H         1 UNK         0.0813 
    120 H120       31.8108   33.2870    6.5062 H         1 UNK         0.3038 
    121 H121       32.3808   31.2958    8.4802 H         1 UNK         0.0769 
    122 H122       34.0386   33.6962    7.5277 H         1 UNK         0.0811 
    123 H123       34.3282   32.7763    8.9975 H         1 UNK         0.0811 
    124 H124       32.8511   33.7097    8.8331 H         1 UNK         0.0811 
    125 H125       33.4967   31.6782    5.1645 H         1 UNK         0.3204 
    126 H126       35.8374   29.9174    5.5569 H         1 UNK         0.0748 
    127 H127       36.1520   31.9063    4.1762 H         1 UNK         0.0771 
    128 H128       36.2904   30.4807    3.1662 H         1 UNK         0.0771 
    129 H129       34.8284   31.4545    3.1144 H         1 UNK         0.0771 
    130 H130       32.6306   29.1735    5.3950 H         1 UNK         0.2980 
    131 H131       32.6097   27.0906    3.4323 H         1 UNK         0.0545 
    132 H132       34.4752   25.3748    6.6080 H         1 UNK         0.3459 
    133 H133       34.2064   27.0999    6.5732 H         1 UNK         0.3459 
    134 H134       30.5880   26.2385    4.7994 H         1 UNK         0.0616 
    135 H135       30.8631   27.5585    5.8955 H         1 UNK         0.0616 
    136 H136       28.7722   26.3477    3.2384 H         1 UNK         0.0634 
    137 H137       28.4398   27.6567    2.1351 H         1 UNK         0.0634 
@<TRIPOS>BOND
     1    1    2 1    
     2    1   72 1    
     3    1   73 1    
     4    1   74 1    
     5    2    3 2    
     6    2    4 am   BACKBONE|DICT|INTERRES
     7    4    5 1    
     8    4   75 1    
     9    5    6 1    
    10    5   35 1    
    11    5   76 1    
    12    6    7 1    
    13    6   77 1    
    14    6   78 1    
    15    7    8 1    
    16    8    9 1    
    17    8   79 1    
    18    8   80 1    
    19    9   10 ar   
    20    9   14 ar   
    21   10   11 ar   
    22   10   81 1    
    23   11   12 ar   
    24   11   71 1    
    25   12   13 ar   
    26   12   82 1    
    27   13   14 ar   
    28   13   15 1    
    29   14   83 1    
    30   15   16 1    
    31   15   84 1    
    32   15   85 1    
    33   16   17 1    
    34   17   18 1    
    35   17   86 1    
    36   17   87 1    
    37   18   19 1    
    38   18   37 1    
    39   18   88 1    
    40   19   20 am   BACKBONE|DICT|INTERRES
    41   19   89 1    
    42   20   21 2    
    43   20   22 1    
    44   22   23 1    
    45   22   24 1    
    46   22   90 1    
    47   23   91 1    
    48   23   92 1    
    49   23   93 1    
    50   24   25 am   BACKBONE|DICT|INTERRES
    51   24   94 1    
    52   25   26 2    
    53   25   27 1    
    54   27   28 1    
    55   27   29 1    
    56   27   95 1    
    57   28   96 1    
    58   28   97 1    
    59   28   98 1    
    60   29   30 am   BACKBONE|DICT|INTERRES
    61   29   99 1    
    62   30   31 2    
    63   30   32 1    
    64   32   33 1    
    65   32   34 1    
    66   32  100 1    
    67   33  101 1    
    68   33  102 1    
    69   33  103 1    
    70   34   35 am   BACKBONE|DICT|INTERRES
    71   34  104 1    
    72   35   36 2    
    73   37   38 2    
    74   37   39 am   BACKBONE|DICT|INTERRES
    75   39   40 1    
    76   39  105 1    
    77   40   41 1    
    78   40   42 1    
    79   40  106 1    
    80   41  107 1    
    81   41  108 1    
    82   41  109 1    
    83   42   43 2    
    84   42   44 am   BACKBONE|DICT|INTERRES
    85   44   45 1    
    86   44  110 1    
    87   45   46 1    
    88   45   47 1    
    89   45  111 1    
    90   46  112 1    
    91   46  113 1    
    92   46  114 1    
    93   47   48 2    
    94   47   49 am   BACKBONE|DICT|INTERRES
    95   49   50 1    
    96   49  115 1    
    97   50   51 1    
    98   50   52 1    
    99   50  116 1    
   100   51  117 1    
   101   51  118 1    
   102   51  119 1    
   103   52   53 2    
   104   52   54 am   BACKBONE|DICT|INTERRES
   105   54   55 1    
   106   54  120 1    
   107   55   56 1    
   108   55   57 1    
   109   55  121 1    
   110   56  122 1    
   111   56  123 1    
   112   56  124 1    
   113   57   58 2    
   114   57   59 am   BACKBONE|DICT|INTERRES
   115   59   60 1    
   116   59  125 1    
   117   60   61 1    
   118   60   62 1    
   119   60  126 1    
   120   61  127 1    
   121   61  128 1    
   122   61  129 1    
   123   62   63 2    
   124   62   64 am   BACKBONE|DICT|INTERRES
   125   64   65 1    
   126   64  130 1    
   127   65   66 1    
   128   65   69 1    
   129   65  131 1    
   130   66   67 am   BACKBONE|DICT|INTERRES
   131   66   68 2    
   132   67  132 1    
   133   67  133 1    
   134   69   70 1    
   135   69  134 1    
   136   69  135 1    
   137   70   71 1    
   138   71  136 1    
   139   71  137 1    
@<TRIPOS>SUBSTRUCTURE
     1 UNK         1 GROUP             0       ****    0 ROOT    
