@<TRIPOS>MOLECULE
3R136
137   139    1
SMALL
USER_CHARGES


@<TRIPOS>ATOM
      1 CA         30.4368   20.2252   -3.4639 C.3       0 UNK        -0.1979 
      2 C          31.0714   21.3906   -2.7191 C.2       0 UNK         0.4864 
      3 O          32.1393   21.8608   -3.1152 O.2       0 UNK        -0.5359 
      4 N          30.4277   21.8526   -1.6396 N.am      1 UNK        -0.4318 
      5 CA         30.8604   22.9917   -0.8239 C.3       1 UNK         0.0824 
      6 C6         30.0695   23.0820    0.5056 C.3       12 UNK        -0.0944 
      7 S7         30.2019   21.5723    1.5212 S.3       12 UNK        -0.2672 
      8 C8         31.1656   22.1510    2.9542 C.3       12 UNK         0.0333 
      9 C9         30.3955   23.1428    3.8182 C.ar      12 UNK        -0.0807 
     10 C10        30.8557   24.4557    3.9581 C.ar      12 UNK        -0.0894 
     11 C11        30.1747   25.3597    4.7764 C.ar      12 UNK        -0.0804 
     12 C12        29.0501   24.9337    5.4855 C.ar      12 UNK        -0.0824 
     13 C13        28.5322   23.6476    5.2999 C.ar      12 UNK        -0.0762 
     14 C14        29.2269   22.7493    4.4816 C.ar      12 UNK        -0.0782 
     15 C15        27.2269   23.2175    5.9700 C.3       12 UNK         0.0230 
     16 S16        25.9282   24.5113    5.9959 S.3       12 UNK        -0.2608 
     17 C17        25.5475   24.7672    4.2241 C.3       12 UNK        -0.0989 
     18 CA         26.3155   25.9751    3.6179 C.3       5 UNK         0.0716 
     19 N          26.7114   25.7638    2.2270 N.am      5 UNK        -0.4135 
     20 C          25.9461   25.8474    1.1336 C.2       4 UNK         0.5031 
     21 O          24.7382   26.0928    1.1407 O.2       4 UNK        -0.5229 
     22 CA         26.6881   25.6141   -0.1977 C.3       4 UNK         0.0329 
     23 CB         25.7732   24.9601   -1.2487 C.3       4 UNK        -0.2001 
     24 N          27.3270   26.7939   -0.7999 N.am      4 UNK        -0.4303 
     25 C          27.9486   27.8289   -0.2105 C.2       3 UNK         0.5044 
     26 O          27.9939   28.0315    1.0024 O.2       3 UNK        -0.5152 
     27 CA         28.7128   28.7600   -1.1720 C.3       3 UNK         0.0319 
     28 CB         29.2264   30.0448   -0.4884 C.3       3 UNK        -0.2001 
     29 N          29.8034   28.0338   -1.8400 N.am      3 UNK        -0.4354 
     30 C          30.8318   27.4033   -1.2500 C.2       2 UNK         0.4964 
     31 O          31.1122   27.4766   -0.0521 O.2       2 UNK        -0.5047 
     32 CA         31.6969   26.5095   -2.1510 C.3       2 UNK         0.0288 
     33 CB         33.1244   27.0671   -2.2806 C.3       2 UNK        -0.2113 
     34 N          31.7436   25.1561   -1.5938 N.am      2 UNK        -0.4145 
     35 C          30.7071   24.3061   -1.6154 C.2       1 UNK         0.5006 
     36 O          29.6452   24.5374   -2.2014 O.2       1 UNK        -0.5103 
     37 C          25.7223   27.3733    3.9098 C.2       5 UNK         0.5055 
     38 O          24.8234   27.5103    4.7424 O.2       5 UNK        -0.5220 
     39 N          26.2818   28.3956    3.2515 N.am      6 UNK        -0.4450 
     40 CA         26.1556   29.8047    3.6139 C.3       6 UNK         0.0367 
     41 CB         25.9451   30.6286    2.3333 C.3       6 UNK        -0.1929 
     42 C          27.4480   30.2401    4.3225 C.2       6 UNK         0.5070 
     43 O          28.4899   29.6041    4.1527 O.2       6 UNK        -0.5237 
     44 N          27.3828   31.3376    5.0847 N.am      7 UNK        -0.4739 
     45 CA         28.5251   31.9250    5.7954 C.3       7 UNK         0.0276 
     46 CB         27.9995   32.7500    6.9853 C.3       7 UNK        -0.1927 
     47 C          29.4217   32.7504    4.8489 C.2       7 UNK         0.5013 
     48 O          29.5502   33.9643    5.0218 O.2       7 UNK        -0.5193 
     49 N          29.9977   32.0837    3.8445 N.am      8 UNK        -0.4253 
     50 CA         30.8416   32.6592    2.8018 C.3       8 UNK         0.0242 
     51 CB         29.9537   33.3052    1.7194 C.3       8 UNK        -0.2000 
     52 C          31.7312   31.5612    2.2059 C.2       8 UNK         0.4948 
     53 O          31.5289   30.3819    2.5072 O.2       8 UNK        -0.5275 
     54 N          32.6936   31.9781    1.3680 N.am      9 UNK        -0.4246 
     55 CA         33.6354   31.1579    0.5937 C.3       9 UNK         0.0261 
     56 CB         32.9314   30.5414   -0.6308 C.3       9 UNK        -0.1959 
     57 C          34.3787   30.1273    1.4620 C.2       9 UNK         0.5033 
     58 O          35.3293   30.5084    2.1471 O.2       9 UNK        -0.5390 
     59 N          33.9149   28.8678    1.4643 N.am      10 UNK        -0.4215 
     60 CA         34.4356   27.7801    2.3002 C.3       10 UNK         0.0240 
     61 CB         33.7249   26.4685    1.9276 C.3       10 UNK        -0.1982 
     62 C          34.3277   28.0440    3.8157 C.2       10 UNK         0.4970 
     63 O          35.1369   27.5035    4.5707 O.2       10 UNK        -0.4916 
     64 N          33.3620   28.8771    4.2215 N.am      11 UNK        -0.4279 
     65 CA         33.1762   29.3700    5.5939 C.3       11 UNK         0.1003 
     66 C          33.4632   30.8962    5.7145 C.2       11 UNK         0.5709 
     67 N          34.1483   31.5260    4.7655 N.am      11 UNK        -0.7358 
     68 O          33.0789   31.5261    6.6968 O.2       11 UNK        -0.4999 
     69 C69        31.7814   28.9787    6.1513 C.3       12 UNK        -0.0954 
     70 S70        31.5828   27.1729    6.3266 S.3       12 UNK        -0.2268 
     71 C71        30.5998   26.8163    4.8447 C.3       12 UNK         0.0203 
     72 H72        30.2221   20.5104   -4.4935 H         1 UNK         0.0888 
     73 H73        31.1178   19.3747   -3.4800 H         1 UNK         0.0888 
     74 H74        29.5044   19.9040   -2.9996 H         1 UNK         0.0888 
     75 H75        29.5533   21.4306   -1.3626 H         1 UNK         0.3017 
     76 H76        31.9166   22.8481   -0.5853 H         1 UNK         0.0873 
     77 H77        30.3992   23.9448    1.0875 H         1 UNK         0.0745 
     78 H78        29.0090   23.2390    0.3067 H         1 UNK         0.0745 
     79 H79        31.4361   21.2887    3.5650 H         1 UNK         0.0705 
     80 H80        32.1043   22.5817    2.6017 H         1 UNK         0.0705 
     81 H81        31.7382   24.7777    3.4239 H         1 UNK         0.1334 
     82 H82        28.5347   25.6348    6.1278 H         1 UNK         0.1417 
     83 H83        28.8560   21.7417    4.3495 H         1 UNK         0.1562 
     84 H84        27.4480   22.9283    6.9981 H         1 UNK         0.0748 
     85 H85        26.8200   22.3303    5.4820 H         1 UNK         0.0748 
     86 H86        24.4703   24.8878    4.0964 H         1 UNK         0.0940 
     87 H87        25.8036   23.8490    3.6928 H         1 UNK         0.0940 
     88 H88        27.2772   26.0348    4.1123 H         1 UNK         0.0703 
     89 H89        27.7026   25.6272    2.0883 H         1 UNK         0.3081 
     90 H90        27.4922   24.9070    0.0044 H         1 UNK         0.0719 
     91 H91        25.2800   24.0753   -0.8434 H         1 UNK         0.0809 
     92 H92        26.3392   24.6390   -2.1236 H         1 UNK         0.0809 
     93 H93        24.9923   25.6439   -1.5841 H         1 UNK         0.0809 
     94 H94        27.3926   26.7560   -1.8065 H         1 UNK         0.2990 
     95 H95        28.0114   29.0624   -1.9513 H         1 UNK         0.0690 
     96 H96        29.8052   30.6608   -1.1760 H         1 UNK         0.0788 
     97 H97        29.8513   29.8229    0.3772 H         1 UNK         0.0788 
     98 H98        28.3929   30.6506   -0.1340 H         1 UNK         0.0788 
     99 H99        29.6822   27.9018   -2.8348 H         1 UNK         0.2993 
    100 H100       31.2562   26.4584   -3.1493 H         1 UNK         0.0949 
    101 H101       33.7484   26.4204   -2.8978 H         1 UNK         0.0767 
    102 H102       33.1131   28.0498   -2.7534 H         1 UNK         0.0767 
    103 H103       33.6109   27.1767   -1.3109 H         1 UNK         0.0767 
    104 H104       32.5726   24.9111   -1.0730 H         1 UNK         0.3013 
    105 H105       27.0246   28.1956    2.5815 H         1 UNK         0.3121 
    106 H106       25.3091   29.9592    4.2862 H         1 UNK         0.0774 
    107 H107       25.8184   31.6874    2.5621 H         1 UNK         0.0815 
    108 H108       26.7953   30.5402    1.6565 H         1 UNK         0.0815 
    109 H109       25.0548   30.3028    1.7954 H         1 UNK         0.0815 
    110 H110       26.5067   31.8366    5.1500 H         1 UNK         0.2987 
    111 H111       29.1434   31.1209    6.2017 H         1 UNK         0.0949 
    112 H112       27.3631   33.5734    6.6586 H         1 UNK         0.0806 
    113 H113       27.4222   32.1314    7.6727 H         1 UNK         0.0806 
    114 H114       28.8238   33.1808    7.5555 H         1 UNK         0.0806 
    115 H115       29.8481   31.0789    3.7676 H         1 UNK         0.3010 
    116 H116       31.4928   33.4144    3.2472 H         1 UNK         0.0829 
    117 H117       29.3421   34.1071    2.1333 H         1 UNK         0.0813 
    118 H118       30.5505   33.7413    0.9178 H         1 UNK         0.0813 
    119 H119       29.2817   32.5751    1.2672 H         1 UNK         0.0813 
    120 H120       32.7937   32.9748    1.2340 H         1 UNK         0.3038 
    121 H121       34.3992   31.8400    0.2165 H         1 UNK         0.0769 
    122 H122       32.0946   29.9105   -0.3415 H         1 UNK         0.0811 
    123 H123       33.6222   29.9353   -1.2176 H         1 UNK         0.0811 
    124 H124       32.5432   31.3164   -1.2915 H         1 UNK         0.0811 
    125 H125       33.0724   28.6679    0.9389 H         1 UNK         0.3204 
    126 H126       35.4973   27.6703    2.0698 H         1 UNK         0.0748 
    127 H127       34.0648   25.6440    2.5559 H         1 UNK         0.0771 
    128 H128       32.6443   26.5508    2.0470 H         1 UNK         0.0771 
    129 H129       33.9256   26.1891    0.8939 H         1 UNK         0.0771 
    130 H130       32.7455   29.2938    3.5274 H         1 UNK         0.2980 
    131 H131       33.9197   28.9109    6.2471 H         1 UNK         0.0545 
    132 H132       34.5215   31.0282    3.9658 H         1 UNK         0.3459 
    133 H133       34.3399   32.5085    4.8765 H         1 UNK         0.3459 
    134 H134       31.6277   29.4055    7.1437 H         1 UNK         0.0616 
    135 H135       30.9890   29.3860    5.5208 H         1 UNK         0.0616 
    136 H136       31.1641   27.0938    3.9537 H         1 UNK         0.0634 
    137 H137       29.7090   27.4440    4.8484 H         1 UNK         0.0634 
@<TRIPOS>BOND
     1    1    2 1    
     2    1   72 1    
     3    1   73 1    
     4    1   74 1    
     5    2    3 2    
     6    2    4 am   BACKBONE|DICT|INTERRES
     7    4    5 1    
     8    4   75 1    
     9    5    6 1    
    10    5   35 1    
    11    5   76 1    
    12    6    7 1    
    13    6   77 1    
    14    6   78 1    
    15    7    8 1    
    16    8    9 1    
    17    8   79 1    
    18    8   80 1    
    19    9   10 ar   
    20    9   14 ar   
    21   10   11 ar   
    22   10   81 1    
    23   11   12 ar   
    24   11   71 1    
    25   12   13 ar   
    26   12   82 1    
    27   13   14 ar   
    28   13   15 1    
    29   14   83 1    
    30   15   16 1    
    31   15   84 1    
    32   15   85 1    
    33   16   17 1    
    34   17   18 1    
    35   17   86 1    
    36   17   87 1    
    37   18   19 1    
    38   18   37 1    
    39   18   88 1    
    40   19   20 am   BACKBONE|DICT|INTERRES
    41   19   89 1    
    42   20   21 2    
    43   20   22 1    
    44   22   23 1    
    45   22   24 1    
    46   22   90 1    
    47   23   91 1    
    48   23   92 1    
    49   23   93 1    
    50   24   25 am   BACKBONE|DICT|INTERRES
    51   24   94 1    
    52   25   26 2    
    53   25   27 1    
    54   27   28 1    
    55   27   29 1    
    56   27   95 1    
    57   28   96 1    
    58   28   97 1    
    59   28   98 1    
    60   29   30 am   BACKBONE|DICT|INTERRES
    61   29   99 1    
    62   30   31 2    
    63   30   32 1    
    64   32   33 1    
    65   32   34 1    
    66   32  100 1    
    67   33  101 1    
    68   33  102 1    
    69   33  103 1    
    70   34   35 am   BACKBONE|DICT|INTERRES
    71   34  104 1    
    72   35   36 2    
    73   37   38 2    
    74   37   39 am   BACKBONE|DICT|INTERRES
    75   39   40 1    
    76   39  105 1    
    77   40   41 1    
    78   40   42 1    
    79   40  106 1    
    80   41  107 1    
    81   41  108 1    
    82   41  109 1    
    83   42   43 2    
    84   42   44 am   BACKBONE|DICT|INTERRES
    85   44   45 1    
    86   44  110 1    
    87   45   46 1    
    88   45   47 1    
    89   45  111 1    
    90   46  112 1    
    91   46  113 1    
    92   46  114 1    
    93   47   48 2    
    94   47   49 am   BACKBONE|DICT|INTERRES
    95   49   50 1    
    96   49  115 1    
    97   50   51 1    
    98   50   52 1    
    99   50  116 1    
   100   51  117 1    
   101   51  118 1    
   102   51  119 1    
   103   52   53 2    
   104   52   54 am   BACKBONE|DICT|INTERRES
   105   54   55 1    
   106   54  120 1    
   107   55   56 1    
   108   55   57 1    
   109   55  121 1    
   110   56  122 1    
   111   56  123 1    
   112   56  124 1    
   113   57   58 2    
   114   57   59 am   BACKBONE|DICT|INTERRES
   115   59   60 1    
   116   59  125 1    
   117   60   61 1    
   118   60   62 1    
   119   60  126 1    
   120   61  127 1    
   121   61  128 1    
   122   61  129 1    
   123   62   63 2    
   124   62   64 am   BACKBONE|DICT|INTERRES
   125   64   65 1    
   126   64  130 1    
   127   65   66 1    
   128   65   69 1    
   129   65  131 1    
   130   66   67 am   BACKBONE|DICT|INTERRES
   131   66   68 2    
   132   67  132 1    
   133   67  133 1    
   134   69   70 1    
   135   69  134 1    
   136   69  135 1    
   137   70   71 1    
   138   71  136 1    
   139   71  137 1    
@<TRIPOS>SUBSTRUCTURE
     1 UNK         1 GROUP             0       ****    0 ROOT    
