@<TRIPOS>MOLECULE
3R136
137   139    1
SMALL
USER_CHARGES


@<TRIPOS>ATOM
      1 CA         29.4567   21.1929   -3.0621 C.3       0 UNK        -0.1979 
      2 C          29.0052   22.6136   -2.7597 C.2       0 UNK         0.4864 
      3 O          28.4203   23.2700   -3.6239 O.2       0 UNK        -0.5359 
      4 N          29.2589   23.0959   -1.5359 N.am      1 UNK        -0.4318 
      5 CA         28.9165   24.4436   -1.0631 C.3       1 UNK         0.0824 
      6 C6         29.8570   24.9095    0.0773 C.3       12 UNK        -0.0944 
      7 S7         31.5971   24.9689   -0.4719 S.3       12 UNK        -0.2672 
      8 C8         32.3913   23.7383    0.6131 C.3       12 UNK         0.0333 
      9 C9         32.6492   24.3170    1.9953 C.ar      12 UNK        -0.0807 
     10 C10        33.6899   25.2314    2.1783 C.ar      12 UNK        -0.0894 
     11 C11        33.8915   25.8454    3.4172 C.ar      12 UNK        -0.0804 
     12 C12        33.0589   25.5069    4.4894 C.ar      12 UNK        -0.0824 
     13 C13        32.0410   24.5612    4.3307 C.ar      12 UNK        -0.0762 
     14 C14        31.8401   23.9680    3.0803 C.ar      12 UNK        -0.0782 
     15 C15        31.1527   24.1937    5.5119 C.3       12 UNK         0.0230 
     16 S16        29.4074   24.6474    5.2484 S.3       12 UNK        -0.2608 
     17 C17        29.5161   26.4346    4.8836 C.3       12 UNK        -0.0989 
     18 CA         29.0552   26.7621    3.4373 C.3       5 UNK         0.0716 
     19 N          27.6866   26.3034    3.1347 N.am      5 UNK        -0.4135 
     20 C          26.5647   26.5931    3.8103 C.2       4 UNK         0.5031 
     21 O          26.5066   27.4056    4.7344 O.2       4 UNK        -0.5229 
     22 CA         25.2947   25.8914    3.3134 C.3       4 UNK         0.0329 
     23 CB         24.0806   26.0710    4.2507 C.3       4 UNK        -0.2001 
     24 N          24.9908   26.2947    1.9393 N.am      4 UNK        -0.4303 
     25 C          24.5908   27.4937    1.4863 C.2       3 UNK         0.5044 
     26 O          24.3714   28.4620    2.2137 O.2       3 UNK        -0.5152 
     27 CA         24.4258   27.6594   -0.0425 C.3       3 UNK         0.0319 
     28 CB         25.1043   28.9492   -0.5361 C.3       3 UNK        -0.2001 
     29 N          24.9394   26.5223   -0.8169 N.am      3 UNK        -0.4354 
     30 C          24.3231   25.3392   -0.9477 C.2       2 UNK         0.4964 
     31 O          23.1919   25.1139   -0.5176 O.2       2 UNK        -0.5047 
     32 CA         25.1006   24.1958   -1.6245 C.3       2 UNK         0.0288 
     33 CB         24.5643   23.9545   -3.0453 C.3       2 UNK        -0.2113 
     34 N          26.5594   24.3517   -1.6935 N.am      2 UNK        -0.4145 
     35 C          27.4220   24.5157   -0.6786 C.2       1 UNK         0.5006 
     36 O          27.0862   24.6945    0.4962 O.2       1 UNK        -0.5103 
     37 C          29.3099   28.2459    3.0855 C.2       5 UNK         0.5055 
     38 O          30.4560   28.6118    2.8131 O.2       5 UNK        -0.5220 
     39 N          28.2549   29.0726    3.0451 N.am      6 UNK        -0.4450 
     40 CA         28.2769   30.4968    2.6925 C.3       6 UNK         0.0367 
     41 CB         26.8623   31.0751    2.8446 C.3       6 UNK        -0.1929 
     42 C          28.8264   30.7944    1.2856 C.2       6 UNK         0.5070 
     43 O          29.3738   31.8759    1.0734 O.2       6 UNK        -0.5237 
     44 N          28.7360   29.8168    0.3706 N.am      7 UNK        -0.4739 
     45 CA         29.3320   29.8525   -0.9717 C.3       7 UNK         0.0276 
     46 CB         28.9052   28.5987   -1.7545 C.3       7 UNK        -0.1927 
     47 C          30.8687   29.9735   -0.9645 C.2       7 UNK         0.5013 
     48 O          31.4356   30.4833   -1.9313 O.2       7 UNK        -0.5193 
     49 N          31.5021   29.5275    0.1275 N.am      8 UNK        -0.4253 
     50 CA         32.9328   29.6528    0.3968 C.3       8 UNK         0.0242 
     51 CB         33.5185   28.2425    0.5462 C.3       8 UNK        -0.2000 
     52 C          33.1783   30.5207    1.6460 C.2       8 UNK         0.4948 
     53 O          34.1893   30.3381    2.3253 O.2       8 UNK        -0.5275 
     54 N          32.2441   31.4411    1.9362 N.am      9 UNK        -0.4246 
     55 CA         32.2552   32.4183    3.0318 C.3       9 UNK         0.0261 
     56 CB         33.4142   33.4233    2.8543 C.3       9 UNK        -0.1959 
     57 C          32.2159   31.8112    4.4501 C.2       9 UNK         0.5033 
     58 O          32.5497   32.5165    5.4038 O.2       9 UNK        -0.5390 
     59 N          31.7827   30.5455    4.5745 N.am      10 UNK        -0.4215 
     60 CA         31.6198   29.7810    5.8172 C.3       10 UNK         0.0240 
     61 CB         30.4041   30.2996    6.6133 C.3       10 UNK        -0.1982 
     62 C          32.9116   29.7011    6.6541 C.2       10 UNK         0.4970 
     63 O          32.9344   30.1428    7.8050 O.2       10 UNK        -0.4916 
     64 N          33.9666   29.1553    6.0354 N.am      11 UNK        -0.4279 
     65 CA         35.2977   28.9454    6.6261 C.3       11 UNK         0.1003 
     66 C          35.2999   28.1010    7.9361 C.2       11 UNK         0.5709 
     67 N          36.2871   28.3032    8.7989 N.am      11 UNK        -0.7358 
     68 O          34.4424   27.2476    8.1605 O.2       11 UNK        -0.4999 
     69 C69        36.3020   28.4037    5.5684 C.3       12 UNK        -0.0954 
     70 S70        36.0021   26.6792    5.0382 S.3       12 UNK        -0.2268 
     71 C71        34.9594   26.9227    3.5664 C.3       12 UNK         0.0203 
     72 H72        29.9558   20.7334   -2.2091 H         1 UNK         0.0888 
     73 H73        28.5990   20.5753   -3.3272 H         1 UNK         0.0888 
     74 H74        30.1509   21.1917   -3.9020 H         1 UNK         0.0888 
     75 H75        29.7216   22.5050   -0.8608 H         1 UNK         0.3017 
     76 H76        29.0547   25.1412   -1.8927 H         1 UNK         0.0873 
     77 H77        29.7592   24.2635    0.9513 H         1 UNK         0.0745 
     78 H78        29.5866   25.9139    0.4056 H         1 UNK         0.0745 
     79 H79        31.7789   22.8372    0.6686 H         1 UNK         0.0705 
     80 H80        33.3399   23.4362    0.1667 H         1 UNK         0.0705 
     81 H81        34.3123   25.5007    1.3358 H         1 UNK         0.1334 
     82 H82        33.2038   25.9843    5.4494 H         1 UNK         0.1417 
     83 H83        31.0378   23.2543    2.9512 H         1 UNK         0.1562 
     84 H84        31.5050   24.6712    6.4278 H         1 UNK         0.0748 
     85 H85        31.2158   23.1185    5.6847 H         1 UNK         0.0748 
     86 H86        30.5442   26.7596    5.0347 H         1 UNK         0.0940 
     87 H87        28.9241   26.9781    5.6215 H         1 UNK         0.0940 
     88 H88        29.7033   26.1966    2.7670 H         1 UNK         0.0703 
     89 H89        27.6049   25.6637    2.3515 H         1 UNK         0.3081 
     90 H90        25.5211   24.8243    3.2780 H         1 UNK         0.0719 
     91 H91        23.8130   27.1193    4.3849 H         1 UNK         0.0809 
     92 H92        23.2044   25.5474    3.8687 H         1 UNK         0.0809 
     93 H93        24.2954   25.6667    5.2406 H         1 UNK         0.0809 
     94 H94        25.2122   25.5976    1.2394 H         1 UNK         0.2990 
     95 H95        23.3551   27.7503   -0.2371 H         1 UNK         0.0690 
     96 H96        25.0169   29.0609   -1.6170 H         1 UNK         0.0788 
     97 H97        26.1608   28.9696   -0.2759 H         1 UNK         0.0788 
     98 H98        24.6450   29.8299   -0.0850 H         1 UNK         0.0788 
     99 H99        25.8660   26.6175   -1.2047 H         1 UNK         0.2993 
    100 H100       24.9082   23.2989   -1.0322 H         1 UNK         0.0949 
    101 H101       25.0185   23.0719   -3.4966 H         1 UNK         0.0767 
    102 H102       23.4854   23.7918   -3.0369 H         1 UNK         0.0767 
    103 H103       24.7616   24.8051   -3.6991 H         1 UNK         0.0767 
    104 H104       26.9788   24.1658   -2.6007 H         1 UNK         0.3013 
    105 H105       27.3677   28.6977    3.3632 H         1 UNK         0.3121 
    106 H106       28.9313   30.9986    3.4082 H         1 UNK         0.0774 
    107 H107       26.8521   32.1452    2.6322 H         1 UNK         0.0815 
    108 H108       26.1570   30.6004    2.1613 H         1 UNK         0.0815 
    109 H109       26.4853   30.9435    3.8590 H         1 UNK         0.0815 
    110 H110       28.2782   28.9609    0.6440 H         1 UNK         0.2987 
    111 H111       28.9412   30.7330   -1.4864 H         1 UNK         0.0949 
    112 H112       29.2249   27.6839   -1.2560 H         1 UNK         0.0806 
    113 H113       27.8254   28.5558   -1.8895 H         1 UNK         0.0806 
    114 H114       29.3481   28.5939   -2.7517 H         1 UNK         0.0806 
    115 H115       30.9515   29.1381    0.8863 H         1 UNK         0.3010 
    116 H116       33.4406   30.1495   -0.4323 H         1 UNK         0.0829 
    117 H117       33.3667   27.6512   -0.3569 H         1 UNK         0.0813 
    118 H118       34.5912   28.2710    0.7399 H         1 UNK         0.0813 
    119 H119       33.0384   27.7197    1.3722 H         1 UNK         0.0813 
    120 H120       31.4306   31.4976    1.3322 H         1 UNK         0.3038 
    121 H121       31.3239   32.9778    2.9312 H         1 UNK         0.0769 
    122 H122       33.3334   34.2471    3.5644 H         1 UNK         0.0811 
    123 H123       33.4121   33.8599    1.8557 H         1 UNK         0.0811 
    124 H124       34.3849   32.9528    3.0137 H         1 UNK         0.0811 
    125 H125       31.5293   30.0423    3.7291 H         1 UNK         0.3204 
    126 H126       31.3981   28.7590    5.5171 H         1 UNK         0.0748 
    127 H127       30.2300   29.6906    7.5012 H         1 UNK         0.0771 
    128 H128       30.5465   31.3283    6.9463 H         1 UNK         0.0771 
    129 H129       29.4945   30.2638    6.0134 H         1 UNK         0.0771 
    130 H130       33.8568   28.8432    5.0836 H         1 UNK         0.2980 
    131 H131       35.6413   29.9428    6.9069 H         1 UNK         0.0545 
    132 H132       37.0044   28.9892    8.6219 H         1 UNK         0.3459 
    133 H133       36.3147   27.7576    9.6460 H         1 UNK         0.3459 
    134 H134       36.3131   29.0539    4.6917 H         1 UNK         0.0616 
    135 H135       37.3155   28.4487    5.9705 H         1 UNK         0.0616 
    136 H136       35.6091   26.9536    2.6906 H         1 UNK         0.0634 
    137 H137       34.4592   27.8894    3.6093 H         1 UNK         0.0634 
@<TRIPOS>BOND
     1    1    2 1    
     2    1   72 1    
     3    1   73 1    
     4    1   74 1    
     5    2    3 2    
     6    2    4 am   BACKBONE|DICT|INTERRES
     7    4    5 1    
     8    4   75 1    
     9    5    6 1    
    10    5   35 1    
    11    5   76 1    
    12    6    7 1    
    13    6   77 1    
    14    6   78 1    
    15    7    8 1    
    16    8    9 1    
    17    8   79 1    
    18    8   80 1    
    19    9   10 ar   
    20    9   14 ar   
    21   10   11 ar   
    22   10   81 1    
    23   11   12 ar   
    24   11   71 1    
    25   12   13 ar   
    26   12   82 1    
    27   13   14 ar   
    28   13   15 1    
    29   14   83 1    
    30   15   16 1    
    31   15   84 1    
    32   15   85 1    
    33   16   17 1    
    34   17   18 1    
    35   17   86 1    
    36   17   87 1    
    37   18   19 1    
    38   18   37 1    
    39   18   88 1    
    40   19   20 am   BACKBONE|DICT|INTERRES
    41   19   89 1    
    42   20   21 2    
    43   20   22 1    
    44   22   23 1    
    45   22   24 1    
    46   22   90 1    
    47   23   91 1    
    48   23   92 1    
    49   23   93 1    
    50   24   25 am   BACKBONE|DICT|INTERRES
    51   24   94 1    
    52   25   26 2    
    53   25   27 1    
    54   27   28 1    
    55   27   29 1    
    56   27   95 1    
    57   28   96 1    
    58   28   97 1    
    59   28   98 1    
    60   29   30 am   BACKBONE|DICT|INTERRES
    61   29   99 1    
    62   30   31 2    
    63   30   32 1    
    64   32   33 1    
    65   32   34 1    
    66   32  100 1    
    67   33  101 1    
    68   33  102 1    
    69   33  103 1    
    70   34   35 am   BACKBONE|DICT|INTERRES
    71   34  104 1    
    72   35   36 2    
    73   37   38 2    
    74   37   39 am   BACKBONE|DICT|INTERRES
    75   39   40 1    
    76   39  105 1    
    77   40   41 1    
    78   40   42 1    
    79   40  106 1    
    80   41  107 1    
    81   41  108 1    
    82   41  109 1    
    83   42   43 2    
    84   42   44 am   BACKBONE|DICT|INTERRES
    85   44   45 1    
    86   44  110 1    
    87   45   46 1    
    88   45   47 1    
    89   45  111 1    
    90   46  112 1    
    91   46  113 1    
    92   46  114 1    
    93   47   48 2    
    94   47   49 am   BACKBONE|DICT|INTERRES
    95   49   50 1    
    96   49  115 1    
    97   50   51 1    
    98   50   52 1    
    99   50  116 1    
   100   51  117 1    
   101   51  118 1    
   102   51  119 1    
   103   52   53 2    
   104   52   54 am   BACKBONE|DICT|INTERRES
   105   54   55 1    
   106   54  120 1    
   107   55   56 1    
   108   55   57 1    
   109   55  121 1    
   110   56  122 1    
   111   56  123 1    
   112   56  124 1    
   113   57   58 2    
   114   57   59 am   BACKBONE|DICT|INTERRES
   115   59   60 1    
   116   59  125 1    
   117   60   61 1    
   118   60   62 1    
   119   60  126 1    
   120   61  127 1    
   121   61  128 1    
   122   61  129 1    
   123   62   63 2    
   124   62   64 am   BACKBONE|DICT|INTERRES
   125   64   65 1    
   126   64  130 1    
   127   65   66 1    
   128   65   69 1    
   129   65  131 1    
   130   66   67 am   BACKBONE|DICT|INTERRES
   131   66   68 2    
   132   67  132 1    
   133   67  133 1    
   134   69   70 1    
   135   69  134 1    
   136   69  135 1    
   137   70   71 1    
   138   71  136 1    
   139   71  137 1    
@<TRIPOS>SUBSTRUCTURE
     1 UNK         1 GROUP             0       ****    0 ROOT    
