@<TRIPOS>MOLECULE
3R136
137   139    1
SMALL
USER_CHARGES


@<TRIPOS>ATOM
      1 CA         27.2397   18.1257   -1.1766 C.3       0 UNK        -0.1979 
      2 C          28.3625   18.9848   -0.6143 C.2       0 UNK         0.4864 
      3 O          29.5103   18.5401   -0.5723 O.2       0 UNK        -0.5359 
      4 N          28.0403   20.2121   -0.1830 N.am      1 UNK        -0.4318 
      5 CA         28.9843   21.1714    0.4109 C.3       1 UNK         0.0824 
      6 C6         28.2610   22.3032    1.1876 C.3       12 UNK        -0.0944 
      7 S7         27.0369   21.6731    2.3869 S.3       12 UNK        -0.2672 
      8 C8         27.9792   21.6932    3.9473 C.3       12 UNK         0.0333 
      9 C9         28.1503   23.0909    4.5337 C.ar      12 UNK        -0.0807 
     10 C10        29.4129   23.5268    4.9477 C.ar      12 UNK        -0.0894 
     11 C11        29.5800   24.7915    5.5248 C.ar      12 UNK        -0.0804 
     12 C12        28.4615   25.6100    5.7097 C.ar      12 UNK        -0.0824 
     13 C13        27.1966   25.1972    5.2827 C.ar      12 UNK        -0.0762 
     14 C14        27.0466   23.9340    4.7036 C.ar      12 UNK        -0.0782 
     15 C15        25.9877   26.1066    5.4510 C.3       12 UNK         0.0230 
     16 S16        25.7749   27.2144    4.0184 S.3       12 UNK        -0.2608 
     17 C17        26.9192   28.5841    4.4082 C.3       12 UNK        -0.0989 
     18 CA         28.2630   28.4970    3.6368 C.3       5 UNK         0.0716 
     19 N          28.0412   28.4779    2.1860 N.am      5 UNK        -0.4135 
     20 C          28.9735   28.3196    1.2389 C.2       4 UNK         0.5031 
     21 O          30.1874   28.2818    1.4554 O.2       4 UNK        -0.5229 
     22 CA         28.4451   28.1745   -0.2009 C.3       4 UNK         0.0329 
     23 CB         28.0313   29.5336   -0.7895 C.3       4 UNK        -0.2001 
     24 N          29.4530   27.5552   -1.0642 N.am      4 UNK        -0.4303 
     25 C          29.7572   26.2519   -1.0307 C.2       3 UNK         0.5044 
     26 O          29.1188   25.4136   -0.3872 O.2       3 UNK        -0.5152 
     27 CA         31.0082   25.8303   -1.8178 C.3       3 UNK         0.0319 
     28 CB         32.2775   26.1463   -1.0104 C.3       3 UNK        -0.2001 
     29 N          30.9763   24.3963   -2.0930 N.am      3 UNK        -0.4354 
     30 C          30.3390   23.8256   -3.1193 C.2       2 UNK         0.4964 
     31 O          29.8213   24.4555   -4.0426 O.2       2 UNK        -0.5047 
     32 CA         30.2401   22.2908   -3.1042 C.3       2 UNK         0.0288 
     33 CB         31.6122   21.6233   -3.3305 C.3       2 UNK        -0.2113 
     34 N          29.5597   21.7619   -1.9127 N.am      2 UNK        -0.4145 
     35 C          29.9579   21.7717   -0.6285 C.2       1 UNK         0.5006 
     36 O          31.0359   22.2312   -0.2455 O.2       1 UNK        -0.5103 
     37 C          29.2354   29.5981    4.1170 C.2       5 UNK         0.5055 
     38 O          29.5681   30.5178    3.3655 O.2       5 UNK        -0.5220 
     39 N          29.6485   29.5035    5.3903 N.am      6 UNK        -0.4450 
     40 CA         30.5990   30.3978    6.0628 C.3       6 UNK         0.0367 
     41 CB         30.7469   29.9766    7.5329 C.3       6 UNK        -0.1929 
     42 C          30.2694   31.8978    5.9591 C.2       6 UNK         0.5070 
     43 O          31.1771   32.7044    5.7618 O.2       6 UNK        -0.5237 
     44 N          28.9783   32.2385    6.0482 N.am      7 UNK        -0.4739 
     45 CA         28.4758   33.6077    5.9052 C.3       7 UNK         0.0276 
     46 CB         27.0808   33.6899    6.5476 C.3       7 UNK        -0.1927 
     47 C          28.4227   34.1064    4.4472 C.2       7 UNK         0.5013 
     48 O          28.2872   35.3133    4.2412 O.2       7 UNK        -0.5193 
     49 N          28.4940   33.1899    3.4721 N.am      8 UNK        -0.4253 
     50 CA         28.3462   33.4739    2.0452 C.3       8 UNK         0.0242 
     51 CB         27.3784   32.4523    1.4249 C.3       8 UNK        -0.2000 
     52 C          29.6935   33.4567    1.3107 C.2       8 UNK         0.4948 
     53 O          29.9697   34.3899    0.5556 O.2       8 UNK        -0.5275 
     54 N          30.4977   32.4050    1.5209 N.am      9 UNK        -0.4246 
     55 CA         31.7505   32.1716    0.7942 C.3       9 UNK         0.0261 
     56 CB         31.4665   31.3826   -0.4997 C.3       9 UNK        -0.1959 
     57 C          32.8216   31.4919    1.6609 C.2       9 UNK         0.5033 
     58 O          33.6642   30.7726    1.1202 O.2       9 UNK        -0.5390 
     59 N          32.7834   31.7124    2.9849 N.am      10 UNK        -0.4215 
     60 CA         33.7611   31.2337    3.9782 C.3       10 UNK         0.0240 
     61 CB         35.1157   31.9484    3.7800 C.3       10 UNK        -0.1982 
     62 C          33.9207   29.6972    4.0419 C.2       10 UNK         0.4970 
     63 O          34.9494   29.2190    4.5224 O.2       10 UNK        -0.4916 
     64 N          32.9129   28.9544    3.5594 N.am      11 UNK        -0.4279 
     65 CA         32.9466   27.4983    3.3552 C.3       11 UNK         0.1003 
     66 C          33.9306   27.0432    2.2288 C.2       11 UNK         0.5709 
     67 N          34.3547   27.9194    1.3234 N.am      11 UNK        -0.7358 
     68 O          34.3100   25.8771    2.1548 O.2       11 UNK        -0.4999 
     69 C69        33.0942   26.7069    4.6902 C.3       12 UNK        -0.0954 
     70 S70        32.2039   25.1122    4.6447 S.3       12 UNK        -0.2268 
     71 C71        30.9582   25.2716    5.9692 C.3       12 UNK         0.0203 
     72 H72        26.2793   18.6404   -1.1495 H         1 UNK         0.0888 
     73 H73        27.4528   17.8595   -2.2116 H         1 UNK         0.0888 
     74 H74        27.1470   17.2058   -0.5999 H         1 UNK         0.0888 
     75 H75        27.0755   20.5119   -0.2080 H         1 UNK         0.3017 
     76 H76        29.5979   20.6217    1.1282 H         1 UNK         0.0873 
     77 H77        28.9833   22.9354    1.7088 H         1 UNK         0.0745 
     78 H78        27.7334   22.9635    0.4962 H         1 UNK         0.0745 
     79 H79        28.9458   21.2143    3.7827 H         1 UNK         0.0705 
     80 H80        27.4526   21.0772    4.6773 H         1 UNK         0.0705 
     81 H81        30.2715   22.8810    4.8233 H         1 UNK         0.1334 
     82 H82        28.5741   26.5765    6.1781 H         1 UNK         0.1417 
     83 H83        26.0672   23.6042    4.3840 H         1 UNK         0.1562 
     84 H84        26.0648   26.6846    6.3730 H         1 UNK         0.0748 
     85 H85        25.0856   25.5017    5.5555 H         1 UNK         0.0748 
     86 H86        27.0744   28.6076    5.4878 H         1 UNK         0.0940 
     87 H87        26.4103   29.5199    4.1674 H         1 UNK         0.0940 
     88 H88        28.7442   27.5471    3.8699 H         1 UNK         0.0703 
     89 H89        27.0729   28.5032    1.9036 H         1 UNK         0.3081 
     90 H90        27.5651   27.5274   -0.1821 H         1 UNK         0.0719 
     91 H91        28.8280   30.2723   -0.7188 H         1 UNK         0.0809 
     92 H92        27.7488   29.4438   -1.8386 H         1 UNK         0.0809 
     93 H93        27.1664   29.9369   -0.2626 H         1 UNK         0.0809 
     94 H94        30.0536   28.1819   -1.5789 H         1 UNK         0.2990 
     95 H95        31.0394   26.3838   -2.7588 H         1 UNK         0.0690 
     96 H96        33.1778   25.8687   -1.5586 H         1 UNK         0.0788 
     97 H97        32.2885   25.6154   -0.0573 H         1 UNK         0.0788 
     98 H98        32.3486   27.2120   -0.7878 H         1 UNK         0.0788 
     99 H99        31.2714   23.7816   -1.3391 H         1 UNK         0.2993 
    100 H100       29.6071   22.0140   -3.9492 H         1 UNK         0.0949 
    101 H101       32.3225   21.8555   -2.5366 H         1 UNK         0.0767 
    102 H102       31.5181   20.5387   -3.3869 H         1 UNK         0.0767 
    103 H103       32.0561   21.9597   -4.2684 H         1 UNK         0.0767 
    104 H104       28.6437   21.3740   -2.0898 H         1 UNK         0.3013 
    105 H105       29.3143   28.7325    5.9474 H         1 UNK         0.3121 
    106 H106       31.5624   30.2476    5.5834 H         1 UNK         0.0774 
    107 H107       31.4638   30.6151    8.0514 H         1 UNK         0.0815 
    108 H108       29.8011   30.0458    8.0718 H         1 UNK         0.0815 
    109 H109       31.1106   28.9524    7.6193 H         1 UNK         0.0815 
    110 H110       28.2953   31.5127    6.2096 H         1 UNK         0.2987 
    111 H111       29.1417   34.2806    6.4506 H         1 UNK         0.0949 
    112 H112       26.6856   34.7055    6.4961 H         1 UNK         0.0806 
    113 H113       26.3654   33.0369    6.0460 H         1 UNK         0.0806 
    114 H114       27.1112   33.4108    7.6010 H         1 UNK         0.0806 
    115 H115       28.6883   32.2259    3.7201 H         1 UNK         0.3010 
    116 H116       27.9097   34.4652    1.9036 H         1 UNK         0.0829 
    117 H117       26.3839   32.5357    1.8632 H         1 UNK         0.0813 
    118 H118       27.2738   32.6125    0.3508 H         1 UNK         0.0813 
    119 H119       27.7217   31.4288    1.5731 H         1 UNK         0.0813 
    120 H120       30.1902   31.6652    2.1536 H         1 UNK         0.3038 
    121 H121       32.1825   33.1340    0.5120 H         1 UNK         0.0769 
    122 H122       32.3632   31.3027   -1.1155 H         1 UNK         0.0811 
    123 H123       30.7041   31.8689   -1.1080 H         1 UNK         0.0811 
    124 H124       31.1347   30.3679   -0.2784 H         1 UNK         0.0811 
    125 H125       32.0490   32.3063    3.3485 H         1 UNK         0.3204 
    126 H126       33.3871   31.5375    4.9550 H         1 UNK         0.0748 
    127 H127       35.8037   31.7234    4.5959 H         1 UNK         0.0771 
    128 H128       35.6020   31.6442    2.8524 H         1 UNK         0.0771 
    129 H129       34.9928   33.0312    3.7550 H         1 UNK         0.0771 
    130 H130       32.1196   29.4260    3.1477 H         1 UNK         0.2980 
    131 H131       31.9598   27.2683    2.9574 H         1 UNK         0.0545 
    132 H132       34.9866   27.6094    0.6038 H         1 UNK         0.3459 
    133 H133       34.0581   28.8911    1.3470 H         1 UNK         0.3459 
    134 H134       34.1445   26.5200    4.9202 H         1 UNK         0.0616 
    135 H135       32.7167   27.2998    5.5237 H         1 UNK         0.0616 
    136 H136       31.2813   24.6829    6.8286 H         1 UNK         0.0634 
    137 H137       30.9017   26.3060    6.3094 H         1 UNK         0.0634 
@<TRIPOS>BOND
     1    1    2 1    
     2    1   72 1    
     3    1   73 1    
     4    1   74 1    
     5    2    3 2    
     6    2    4 am   BACKBONE|DICT|INTERRES
     7    4    5 1    
     8    4   75 1    
     9    5    6 1    
    10    5   35 1    
    11    5   76 1    
    12    6    7 1    
    13    6   77 1    
    14    6   78 1    
    15    7    8 1    
    16    8    9 1    
    17    8   79 1    
    18    8   80 1    
    19    9   10 ar   
    20    9   14 ar   
    21   10   11 ar   
    22   10   81 1    
    23   11   12 ar   
    24   11   71 1    
    25   12   13 ar   
    26   12   82 1    
    27   13   14 ar   
    28   13   15 1    
    29   14   83 1    
    30   15   16 1    
    31   15   84 1    
    32   15   85 1    
    33   16   17 1    
    34   17   18 1    
    35   17   86 1    
    36   17   87 1    
    37   18   19 1    
    38   18   37 1    
    39   18   88 1    
    40   19   20 am   BACKBONE|DICT|INTERRES
    41   19   89 1    
    42   20   21 2    
    43   20   22 1    
    44   22   23 1    
    45   22   24 1    
    46   22   90 1    
    47   23   91 1    
    48   23   92 1    
    49   23   93 1    
    50   24   25 am   BACKBONE|DICT|INTERRES
    51   24   94 1    
    52   25   26 2    
    53   25   27 1    
    54   27   28 1    
    55   27   29 1    
    56   27   95 1    
    57   28   96 1    
    58   28   97 1    
    59   28   98 1    
    60   29   30 am   BACKBONE|DICT|INTERRES
    61   29   99 1    
    62   30   31 2    
    63   30   32 1    
    64   32   33 1    
    65   32   34 1    
    66   32  100 1    
    67   33  101 1    
    68   33  102 1    
    69   33  103 1    
    70   34   35 am   BACKBONE|DICT|INTERRES
    71   34  104 1    
    72   35   36 2    
    73   37   38 2    
    74   37   39 am   BACKBONE|DICT|INTERRES
    75   39   40 1    
    76   39  105 1    
    77   40   41 1    
    78   40   42 1    
    79   40  106 1    
    80   41  107 1    
    81   41  108 1    
    82   41  109 1    
    83   42   43 2    
    84   42   44 am   BACKBONE|DICT|INTERRES
    85   44   45 1    
    86   44  110 1    
    87   45   46 1    
    88   45   47 1    
    89   45  111 1    
    90   46  112 1    
    91   46  113 1    
    92   46  114 1    
    93   47   48 2    
    94   47   49 am   BACKBONE|DICT|INTERRES
    95   49   50 1    
    96   49  115 1    
    97   50   51 1    
    98   50   52 1    
    99   50  116 1    
   100   51  117 1    
   101   51  118 1    
   102   51  119 1    
   103   52   53 2    
   104   52   54 am   BACKBONE|DICT|INTERRES
   105   54   55 1    
   106   54  120 1    
   107   55   56 1    
   108   55   57 1    
   109   55  121 1    
   110   56  122 1    
   111   56  123 1    
   112   56  124 1    
   113   57   58 2    
   114   57   59 am   BACKBONE|DICT|INTERRES
   115   59   60 1    
   116   59  125 1    
   117   60   61 1    
   118   60   62 1    
   119   60  126 1    
   120   61  127 1    
   121   61  128 1    
   122   61  129 1    
   123   62   63 2    
   124   62   64 am   BACKBONE|DICT|INTERRES
   125   64   65 1    
   126   64  130 1    
   127   65   66 1    
   128   65   69 1    
   129   65  131 1    
   130   66   67 am   BACKBONE|DICT|INTERRES
   131   66   68 2    
   132   67  132 1    
   133   67  133 1    
   134   69   70 1    
   135   69  134 1    
   136   69  135 1    
   137   70   71 1    
   138   71  136 1    
   139   71  137 1    
@<TRIPOS>SUBSTRUCTURE
     1 UNK         1 GROUP             0       ****    0 ROOT    
