@<TRIPOS>MOLECULE
3R136
137   139    1
SMALL
USER_CHARGES


@<TRIPOS>ATOM
      1 CA         25.9724   20.5262    2.1399 C.3       0 UNK        -0.1979 
      2 C          26.5923   21.6922    1.3861 C.2       0 UNK         0.4864 
      3 O          25.9717   22.7528    1.2809 O.2       0 UNK        -0.5359 
      4 N          27.8207   21.5181    0.8743 N.am      1 UNK        -0.4318 
      5 CA         28.5538   22.5326    0.1053 C.3       1 UNK         0.0824 
      6 C6         29.8631   21.9929   -0.5207 C.3       12 UNK        -0.0944 
      7 S7         31.0926   21.4023    0.6947 S.3       12 UNK        -0.2672 
      8 C8         32.6089   22.2453    0.1326 C.3       12 UNK         0.0333 
      9 C9         32.6436   23.7271    0.4921 C.ar      12 UNK        -0.0807 
     10 C10        32.7665   24.1180    1.8275 C.ar      12 UNK        -0.0894 
     11 C11        32.8758   25.4692    2.1681 C.ar      12 UNK        -0.0804 
     12 C12        32.8672   26.4387    1.1598 C.ar      12 UNK        -0.0824 
     13 C13        32.7320   26.0642   -0.1830 C.ar      12 UNK        -0.0762 
     14 C14        32.6162   24.7062   -0.5072 C.ar      12 UNK        -0.0782 
     15 C15        32.7382   27.1134   -1.2958 C.3       12 UNK         0.0230 
     16 S16        31.4908   28.4339   -1.0926 S.3       12 UNK        -0.2608 
     17 C17        30.0190   27.4660   -0.6332 C.3       12 UNK        -0.0989 
     18 CA         28.6645   28.2044   -0.7832 C.3       5 UNK         0.0716 
     19 N          27.5755   27.2318   -0.6967 N.am      5 UNK        -0.4135 
     20 C          26.3235   27.3676   -1.1465 C.2       4 UNK         0.5031 
     21 O          25.9208   28.3579   -1.7591 O.2       4 UNK        -0.5229 
     22 CA         25.3515   26.2226   -0.8112 C.3       4 UNK         0.0329 
     23 CB         25.5560   25.0355   -1.7657 C.3       4 UNK        -0.2001 
     24 N          25.4798   25.7647    0.5767 N.am      4 UNK        -0.4303 
     25 C          25.1682   26.5039    1.6532 C.2       3 UNK         0.5044 
     26 O          24.6882   27.6362    1.5938 O.2       3 UNK        -0.5152 
     27 CA         25.4470   25.8800    3.0289 C.3       3 UNK         0.0319 
     28 CB         24.3110   24.9299    3.4416 C.3       3 UNK        -0.2001 
     29 N          26.7223   25.1625    3.0378 N.am      3 UNK        -0.4354 
     30 C          27.9104   25.7465    3.2577 C.2       2 UNK         0.4964 
     31 O          28.0434   26.9297    3.5679 O.2       2 UNK        -0.5047 
     32 CA         29.1704   24.8708    3.1191 C.3       2 UNK         0.0288 
     33 CB         29.6030   24.3406    4.4956 C.3       2 UNK        -0.2113 
     34 N          29.0152   23.7384    2.2035 N.am      2 UNK        -0.4145 
     35 C          28.7785   23.8404    0.8877 C.2       1 UNK         0.5006 
     36 O          28.6586   24.9099    0.2983 O.2       1 UNK        -0.5103 
     37 C          28.4602   29.3319    0.2548 C.2       5 UNK         0.5055 
     38 O          29.3163   29.5537    1.1098 O.2       5 UNK        -0.5220 
     39 N          27.3215   30.0343    0.1690 N.am      6 UNK        -0.4450 
     40 CA         26.9020   31.0922    1.0963 C.3       6 UNK         0.0367 
     41 CB         25.4905   31.5654    0.7165 C.3       6 UNK        -0.1929 
     42 C          27.8719   32.2862    1.1731 C.2       6 UNK         0.5070 
     43 O          27.9434   32.9443    2.2109 O.2       6 UNK        -0.5237 
     44 N          28.6205   32.5238    0.0874 N.am      7 UNK        -0.4739 
     45 CA         29.6693   33.5403   -0.0125 C.3       7 UNK         0.0276 
     46 CB         30.0588   33.7062   -1.4907 C.3       7 UNK        -0.1927 
     47 C          30.9191   33.2435    0.8399 C.2       7 UNK         0.5013 
     48 O          31.6875   34.1711    1.0983 O.2       7 UNK        -0.5193 
     49 N          31.1140   31.9845    1.2559 N.am      8 UNK        -0.4253 
     50 CA         32.2405   31.5452    2.0792 C.3       8 UNK         0.0242 
     51 CB         33.4020   31.0750    1.1813 C.3       8 UNK        -0.2000 
     52 C          31.7800   30.4787    3.0827 C.2       8 UNK         0.4948 
     53 O          32.4700   29.4765    3.2732 O.2       8 UNK        -0.5275 
     54 N          30.6173   30.7100    3.7095 N.am      9 UNK        -0.4246 
     55 CA         30.0537   29.8470    4.7487 C.3       9 UNK         0.0261 
     56 CB         28.6274   30.3125    5.0803 C.3       9 UNK        -0.1959 
     57 C          30.9385   29.8461    6.0069 C.2       9 UNK         0.5033 
     58 O          31.4645   30.8999    6.3761 O.2       9 UNK        -0.5390 
     59 N          31.0795   28.6673    6.6314 N.am      10 UNK        -0.4215 
     60 CA         31.9842   28.3731    7.7532 C.3       10 UNK         0.0240 
     61 CB         31.5415   29.1106    9.0360 C.3       10 UNK        -0.1982 
     62 C          33.4636   28.6196    7.3852 C.2       10 UNK         0.4970 
     63 O          34.1842   29.3001    8.1181 O.2       10 UNK        -0.4916 
     64 N          33.8676   28.0687    6.2332 N.am      11 UNK        -0.4279 
     65 CA         35.2241   28.1116    5.6681 C.3       11 UNK         0.1003 
     66 C          36.3275   27.5376    6.6051 C.2       11 UNK         0.5709 
     67 N          37.5612   28.0047    6.4635 N.am      11 UNK        -0.7358 
     68 O          36.0876   26.6571    7.4304 O.2       11 UNK        -0.4999 
     69 C69        35.2618   27.4554    4.2577 C.3       12 UNK        -0.0954 
     70 S70        34.7004   25.7153    4.2363 S.3       12 UNK        -0.2268 
     71 C71        32.9909   25.8672    3.6304 C.3       12 UNK         0.0203 
     72 H72        25.0413   20.2251    1.6608 H         1 UNK         0.0888 
     73 H73        26.6349   19.6615    2.1698 H         1 UNK         0.0888 
     74 H74        25.7489   20.8197    3.1652 H         1 UNK         0.0888 
     75 H75        28.2975   20.6360    1.0002 H         1 UNK         0.3017 
     76 H76        27.9002   22.7968   -0.7285 H         1 UNK         0.0873 
     77 H77        29.6314   21.1620   -1.1888 H         1 UNK         0.0745 
     78 H78        30.3117   22.7581   -1.1572 H         1 UNK         0.0745 
     79 H79        33.4664   21.7554    0.5961 H         1 UNK         0.0705 
     80 H80        32.7257   22.0992   -0.9424 H         1 UNK         0.0705 
     81 H81        32.7885   23.3655    2.6042 H         1 UNK         0.1334 
     82 H82        32.9547   27.4857    1.4196 H         1 UNK         0.1417 
     83 H83        32.5281   24.4080   -1.5430 H         1 UNK         0.1562 
     84 H84        32.5755   26.6420   -2.2662 H         1 UNK         0.0748 
     85 H85        33.7269   27.5716   -1.3422 H         1 UNK         0.0748 
     86 H86        30.1443   27.1059    0.3902 H         1 UNK         0.0940 
     87 H87        30.0172   26.5763   -1.2653 H         1 UNK         0.0940 
     88 H88        28.6333   28.6610   -1.7745 H         1 UNK         0.0703 
     89 H89        27.8224   26.3650   -0.2196 H         1 UNK         0.3081 
     90 H90        24.3351   26.5981   -0.9469 H         1 UNK         0.0719 
     91 H91        26.5598   24.6180   -1.6838 H         1 UNK         0.0809 
     92 H92        24.8434   24.2356   -1.5629 H         1 UNK         0.0809 
     93 H93        25.4141   25.3414   -2.8031 H         1 UNK         0.0809 
     94 H94        25.8279   24.8235    0.7227 H         1 UNK         0.2990 
     95 H95        25.4855   26.6890    3.7620 H         1 UNK         0.0690 
     96 H96        23.3576   25.4587    3.4781 H         1 UNK         0.0788 
     97 H97        24.4864   24.5102    4.4323 H         1 UNK         0.0788 
     98 H98        24.1954   24.1012    2.7425 H         1 UNK         0.0788 
     99 H99        26.6966   24.1928    2.7472 H         1 UNK         0.2993 
    100 H100       29.9646   25.5070    2.7221 H         1 UNK         0.0949 
    101 H101       30.5064   23.7349    4.4243 H         1 UNK         0.0767 
    102 H102       29.8141   25.1622    5.1813 H         1 UNK         0.0767 
    103 H103       28.8259   23.7261    4.9523 H         1 UNK         0.0767 
    104 H104       29.0961   22.8132    2.5994 H         1 UNK         0.3013 
    105 H105       26.6583   29.7576   -0.5493 H         1 UNK         0.3121 
    106 H106       26.8555   30.6479    2.0921 H         1 UNK         0.0774 
    107 H107       25.1373   32.3336    1.4059 H         1 UNK         0.0815 
    108 H108       25.4635   31.9896   -0.2880 H         1 UNK         0.0815 
    109 H109       24.7746   30.7436    0.7548 H         1 UNK         0.0815 
    110 H110       28.4889   31.9256   -0.7153 H         1 UNK         0.2987 
    111 H111       29.2556   34.4867    0.3427 H         1 UNK         0.0949 
    112 H112       30.4705   32.7850   -1.9054 H         1 UNK         0.0806 
    113 H113       29.2014   33.9965   -2.0983 H         1 UNK         0.0806 
    114 H114       30.8152   34.4833   -1.6106 H         1 UNK         0.0806 
    115 H115       30.4251   31.2679    1.0396 H         1 UNK         0.3010 
    116 H116       32.5984   32.3816    2.6834 H         1 UNK         0.0829 
    117 H117       33.7208   31.8615    0.4973 H         1 UNK         0.0813 
    118 H118       34.2698   30.7941    1.7792 H         1 UNK         0.0813 
    119 H119       33.1209   30.2059    0.5875 H         1 UNK         0.0813 
    120 H120       30.1144   31.5601    3.5007 H         1 UNK         0.3038 
    121 H121       30.0031   28.8334    4.3441 H         1 UNK         0.0769 
    122 H122       28.6123   31.3372    5.4538 H         1 UNK         0.0811 
    123 H123       28.1769   29.6771    5.8440 H         1 UNK         0.0811 
    124 H124       27.9846   30.2630    4.2017 H         1 UNK         0.0811 
    125 H125       30.5753   27.8743    6.2593 H         1 UNK         0.3204 
    126 H126       31.8958   27.3031    7.9484 H         1 UNK         0.0748 
    127 H127       32.1443   28.8006    9.8905 H         1 UNK         0.0771 
    128 H128       31.6457   30.1920    8.9426 H         1 UNK         0.0771 
    129 H129       30.5011   28.8943    9.2787 H         1 UNK         0.0771 
    130 H130       33.2027   27.5332    5.6993 H         1 UNK         0.2980 
    131 H131       35.4515   29.1712    5.5367 H         1 UNK         0.0545 
    132 H132       38.2933   27.6378    7.0513 H         1 UNK         0.3459 
    133 H133       37.7754   28.7176    5.7836 H         1 UNK         0.3459 
    134 H134       34.6574   28.0356    3.5601 H         1 UNK         0.0616 
    135 H135       36.2733   27.4890    3.8494 H         1 UNK         0.0616 
    136 H136       32.6096   26.8767    3.7846 H         1 UNK         0.0634 
    137 H137       32.3606   25.2154    4.2345 H         1 UNK         0.0634 
@<TRIPOS>BOND
     1    1    2 1    
     2    1   72 1    
     3    1   73 1    
     4    1   74 1    
     5    2    3 2    
     6    2    4 am   BACKBONE|DICT|INTERRES
     7    4    5 1    
     8    4   75 1    
     9    5    6 1    
    10    5   35 1    
    11    5   76 1    
    12    6    7 1    
    13    6   77 1    
    14    6   78 1    
    15    7    8 1    
    16    8    9 1    
    17    8   79 1    
    18    8   80 1    
    19    9   10 ar   
    20    9   14 ar   
    21   10   11 ar   
    22   10   81 1    
    23   11   12 ar   
    24   11   71 1    
    25   12   13 ar   
    26   12   82 1    
    27   13   14 ar   
    28   13   15 1    
    29   14   83 1    
    30   15   16 1    
    31   15   84 1    
    32   15   85 1    
    33   16   17 1    
    34   17   18 1    
    35   17   86 1    
    36   17   87 1    
    37   18   19 1    
    38   18   37 1    
    39   18   88 1    
    40   19   20 am   BACKBONE|DICT|INTERRES
    41   19   89 1    
    42   20   21 2    
    43   20   22 1    
    44   22   23 1    
    45   22   24 1    
    46   22   90 1    
    47   23   91 1    
    48   23   92 1    
    49   23   93 1    
    50   24   25 am   BACKBONE|DICT|INTERRES
    51   24   94 1    
    52   25   26 2    
    53   25   27 1    
    54   27   28 1    
    55   27   29 1    
    56   27   95 1    
    57   28   96 1    
    58   28   97 1    
    59   28   98 1    
    60   29   30 am   BACKBONE|DICT|INTERRES
    61   29   99 1    
    62   30   31 2    
    63   30   32 1    
    64   32   33 1    
    65   32   34 1    
    66   32  100 1    
    67   33  101 1    
    68   33  102 1    
    69   33  103 1    
    70   34   35 am   BACKBONE|DICT|INTERRES
    71   34  104 1    
    72   35   36 2    
    73   37   38 2    
    74   37   39 am   BACKBONE|DICT|INTERRES
    75   39   40 1    
    76   39  105 1    
    77   40   41 1    
    78   40   42 1    
    79   40  106 1    
    80   41  107 1    
    81   41  108 1    
    82   41  109 1    
    83   42   43 2    
    84   42   44 am   BACKBONE|DICT|INTERRES
    85   44   45 1    
    86   44  110 1    
    87   45   46 1    
    88   45   47 1    
    89   45  111 1    
    90   46  112 1    
    91   46  113 1    
    92   46  114 1    
    93   47   48 2    
    94   47   49 am   BACKBONE|DICT|INTERRES
    95   49   50 1    
    96   49  115 1    
    97   50   51 1    
    98   50   52 1    
    99   50  116 1    
   100   51  117 1    
   101   51  118 1    
   102   51  119 1    
   103   52   53 2    
   104   52   54 am   BACKBONE|DICT|INTERRES
   105   54   55 1    
   106   54  120 1    
   107   55   56 1    
   108   55   57 1    
   109   55  121 1    
   110   56  122 1    
   111   56  123 1    
   112   56  124 1    
   113   57   58 2    
   114   57   59 am   BACKBONE|DICT|INTERRES
   115   59   60 1    
   116   59  125 1    
   117   60   61 1    
   118   60   62 1    
   119   60  126 1    
   120   61  127 1    
   121   61  128 1    
   122   61  129 1    
   123   62   63 2    
   124   62   64 am   BACKBONE|DICT|INTERRES
   125   64   65 1    
   126   64  130 1    
   127   65   66 1    
   128   65   69 1    
   129   65  131 1    
   130   66   67 am   BACKBONE|DICT|INTERRES
   131   66   68 2    
   132   67  132 1    
   133   67  133 1    
   134   69   70 1    
   135   69  134 1    
   136   69  135 1    
   137   70   71 1    
   138   71  136 1    
   139   71  137 1    
@<TRIPOS>SUBSTRUCTURE
     1 UNK         1 GROUP             0       ****    0 ROOT    
