@<TRIPOS>MOLECULE
3R136
137   139    1
SMALL
USER_CHARGES


@<TRIPOS>ATOM
      1 CA         27.6328   27.6443   -2.4340 C.3       0 UNK        -0.1979 
      2 C          27.6945   26.4039   -1.5578 C.2       0 UNK         0.4864 
      3 O          26.6595   25.9366   -1.0830 O.2       0 UNK        -0.5359 
      4 N          28.8933   25.8457   -1.3475 N.am      1 UNK        -0.4318 
      5 CA         29.1684   24.6932   -0.4725 C.3       1 UNK         0.0824 
      6 C6         30.6883   24.4663   -0.3050 C.3       12 UNK        -0.0944 
      7 S7         31.5108   25.9009    0.4725 S.3       12 UNK        -0.2672 
      8 C8         32.2437   25.1570    1.9627 C.3       12 UNK         0.0333 
      9 C9         31.3251   25.2573    3.1729 C.ar      12 UNK        -0.0807 
     10 C10        31.6192   26.1699    4.1907 C.ar      12 UNK        -0.0894 
     11 C11        30.8417   26.2295    5.3546 C.ar      12 UNK        -0.0804 
     12 C12        29.7395   25.3777    5.4661 C.ar      12 UNK        -0.0824 
     13 C13        29.4119   24.4809    4.4442 C.ar      12 UNK        -0.0762 
     14 C14        30.2171   24.4143    3.3038 C.ar      12 UNK        -0.0782 
     15 C15        28.1973   23.5719    4.5928 C.3       12 UNK         0.0230 
     16 S16        26.8180   24.0316    3.4899 S.3       12 UNK        -0.2608 
     17 C17        26.6223   25.8204    3.8021 C.3       12 UNK        -0.0989 
     18 CA         26.9471   26.6181    2.5080 C.3       5 UNK         0.0716 
     19 N          25.8583   26.5952    1.5237 N.am      5 UNK        -0.4135 
     20 C          24.5971   27.0247    1.6711 C.2       4 UNK         0.5031 
     21 O          24.1295   27.5014    2.7068 O.2       4 UNK        -0.5229 
     22 CA         23.6850   26.8786    0.4412 C.3       4 UNK         0.0329 
     23 CB         23.8571   28.0778   -0.5059 C.3       4 UNK        -0.2001 
     24 N          23.9086   25.6337   -0.3012 N.am      4 UNK        -0.4303 
     25 C          23.5683   24.4154    0.1406 C.2       3 UNK         0.5044 
     26 O          23.0457   24.2060    1.2358 O.2       3 UNK        -0.5152 
     27 CA         23.8046   23.2340   -0.8090 C.3       3 UNK         0.0319 
     28 CB         22.7186   23.2050   -1.9046 C.3       3 UNK        -0.2001 
     29 N          25.1471   23.2209   -1.4047 N.am      3 UNK        -0.4354 
     30 C          25.6975   22.1196   -1.9449 C.2       2 UNK         0.4964 
     31 O          25.1408   21.0204   -1.9577 O.2       2 UNK        -0.5047 
     32 CA         27.0853   22.2327   -2.6056 C.3       2 UNK         0.0288 
     33 CB         26.9395   22.3825   -4.1292 C.3       2 UNK        -0.2113 
     34 N          27.8993   23.3342   -2.0977 N.am      2 UNK        -0.4145 
     35 C          28.4516   23.3849   -0.8781 C.2       1 UNK         0.5006 
     36 O          28.4004   22.4551   -0.0718 O.2       1 UNK        -0.5103 
     37 C          27.4940   28.0349    2.7817 C.2       5 UNK         0.5055 
     38 O          26.8280   29.0369    2.5133 O.2       5 UNK        -0.5220 
     39 N          28.7373   28.0728    3.2891 N.am      6 UNK        -0.4450 
     40 CA         29.5372   29.2646    3.5994 C.3       6 UNK         0.0367 
     41 CB         28.9423   30.0251    4.8030 C.3       6 UNK        -0.1929 
     42 C          29.7688   30.1631    2.3693 C.2       6 UNK         0.5070 
     43 O          29.4786   31.3600    2.4106 O.2       6 UNK        -0.5237 
     44 N          30.2894   29.5621    1.2870 N.am      7 UNK        -0.4739 
     45 CA         30.6149   30.2489    0.0275 C.3       7 UNK         0.0276 
     46 CB         30.9944   29.2100   -1.0379 C.3       7 UNK        -0.1927 
     47 C          31.7313   31.3014    0.1684 C.2       7 UNK         0.5013 
     48 O          31.7426   32.2797   -0.5797 O.2       7 UNK        -0.5193 
     49 N          32.6240   31.0905    1.1400 N.am      8 UNK        -0.4253 
     50 CA         33.5841   32.0589    1.6498 C.3       8 UNK         0.0242 
     51 CB         35.0002   31.6842    1.1825 C.3       8 UNK        -0.2000 
     52 C          33.4753   31.9951    3.1748 C.2       8 UNK         0.4948 
     53 O          33.3243   30.8961    3.7146 O.2       8 UNK        -0.5275 
     54 N          33.5715   33.1523    3.8425 N.am      9 UNK        -0.4246 
     55 CA         33.3716   33.3071    5.2908 C.3       9 UNK         0.0261 
     56 CB         33.4052   34.8023    5.6485 C.3       9 UNK        -0.1959 
     57 C          34.3610   32.5221    6.1729 C.2       9 UNK         0.5033 
     58 O          34.0276   32.2064    7.3158 O.2       9 UNK        -0.5390 
     59 N          35.5488   32.2183    5.6332 N.am      10 UNK        -0.4215 
     60 CA         36.5620   31.3780    6.2734 C.3       10 UNK         0.0240 
     61 CB         37.9157   31.6116    5.5817 C.3       10 UNK        -0.1982 
     62 C          36.2083   29.8783    6.2652 C.2       10 UNK         0.4970 
     63 O          36.7460   29.1436    7.0946 O.2       10 UNK        -0.4916 
     64 N          35.3444   29.4490    5.3315 N.am      11 UNK        -0.4279 
     65 CA         34.9018   28.0584    5.1231 C.3       11 UNK         0.1003 
     66 C          36.0346   27.0444    4.7691 C.2       11 UNK         0.5709 
     67 N          37.1848   27.4890    4.2762 N.am      11 UNK        -0.7358 
     68 O          35.8617   25.8351    4.9007 O.2       11 UNK        -0.4999 
     69 C69        33.9527   27.5643    6.2549 C.3       12 UNK        -0.0954 
     70 S70        32.3755   28.4852    6.2513 S.3       12 UNK        -0.2268 
     71 C71        31.1513   27.1579    6.5353 C.3       12 UNK         0.0203 
     72 H72        28.5625   27.8041   -2.9793 H         1 UNK         0.0888 
     73 H73        26.8274   27.5495   -3.1616 H         1 UNK         0.0888 
     74 H74        27.4375   28.5239   -1.8213 H         1 UNK         0.0888 
     75 H75        29.7117   26.2590   -1.7715 H         1 UNK         0.3017 
     76 H76        28.7677   24.9348    0.5095 H         1 UNK         0.0873 
     77 H77        30.8820   23.5715    0.2889 H         1 UNK         0.0745 
     78 H78        31.1563   24.2855   -1.2744 H         1 UNK         0.0745 
     79 H79        32.5131   24.1155    1.7826 H         1 UNK         0.0705 
     80 H80        33.1856   25.6696    2.1647 H         1 UNK         0.0705 
     81 H81        32.4754   26.8132    4.0732 H         1 UNK         0.1334 
     82 H82        29.1309   25.4128    6.3600 H         1 UNK         0.1417 
     83 H83        29.9807   23.7025    2.5247 H         1 UNK         0.1562 
     84 H84        27.8367   23.5765    5.6227 H         1 UNK         0.0748 
     85 H85        28.4893   22.5426    4.3800 H         1 UNK         0.0748 
     86 H86        27.2554   26.1192    4.6367 H         1 UNK         0.0940 
     87 H87        25.6063   26.0056    4.1502 H         1 UNK         0.0940 
     88 H88        27.7749   26.1174    2.0115 H         1 UNK         0.0703 
     89 H89        26.1192   26.2643    0.5966 H         1 UNK         0.3081 
     90 H90        22.6519   26.8761    0.7960 H         1 UNK         0.0719 
     91 H91        24.8650   28.1263   -0.9194 H         1 UNK         0.0809 
     92 H92        23.1541   28.0314   -1.3376 H         1 UNK         0.0809 
     93 H93        23.6760   29.0168    0.0190 H         1 UNK         0.0809 
     94 H94        24.3786   25.7221   -1.1914 H         1 UNK         0.2990 
     95 H95        23.6967   22.3315   -0.2027 H         1 UNK         0.0690 
     96 H96        22.7561   22.2828   -2.4843 H         1 UNK         0.0788 
     97 H97        22.8241   24.0394   -2.5987 H         1 UNK         0.0788 
     98 H98        21.7202   23.2661   -1.4689 H         1 UNK         0.0788 
     99 H99        25.6828   24.0821   -1.3688 H         1 UNK         0.2993 
    100 H100       27.6165   21.2998   -2.4032 H         1 UNK         0.0949 
    101 H101       27.9113   22.3805   -4.6236 H         1 UNK         0.0767 
    102 H102       26.3630   21.5570   -4.5494 H         1 UNK         0.0767 
    103 H103       26.4265   23.3073   -4.3970 H         1 UNK         0.0767 
    104 H104       27.9869   24.1472   -2.6894 H         1 UNK         0.3013 
    105 H105       29.2047   27.1924    3.4639 H         1 UNK         0.3121 
    106 H106       30.5238   28.9090    3.8975 H         1 UNK         0.0774 
    107 H107       29.5958   30.8451    5.1036 H         1 UNK         0.0815 
    108 H108       27.9665   30.4530    4.5717 H         1 UNK         0.0815 
    109 H109       28.8263   29.3716    5.6670 H         1 UNK         0.0815 
    110 H110       30.4888   28.5723    1.3288 H         1 UNK         0.2987 
    111 H111       29.7151   30.7708   -0.3059 H         1 UNK         0.0949 
    112 H112       31.9112   28.6801   -0.7766 H         1 UNK         0.0806 
    113 H113       30.2052   28.4723   -1.1692 H         1 UNK         0.0806 
    114 H114       31.1586   29.6862   -2.0055 H         1 UNK         0.0806 
    115 H115       32.4956   30.2862    1.7407 H         1 UNK         0.3010 
    116 H116       33.3331   33.0657    1.3085 H         1 UNK         0.0829 
    117 H117       35.0688   31.6864    0.0945 H         1 UNK         0.0813 
    118 H118       35.7373   32.3962    1.5556 H         1 UNK         0.0813 
    119 H119       35.2935   30.6934    1.5328 H         1 UNK         0.0813 
    120 H120       33.7149   34.0038    3.3176 H         1 UNK         0.3038 
    121 H121       32.3744   32.9250    5.5204 H         1 UNK         0.0769 
    122 H122       32.6319   35.3567    5.1163 H         1 UNK         0.0811 
    123 H123       34.3692   35.2534    5.4097 H         1 UNK         0.0811 
    124 H124       33.2308   34.9530    6.7150 H         1 UNK         0.0811 
    125 H125       35.7417   32.5394    4.6959 H         1 UNK         0.3204 
    126 H126       36.6554   31.6858    7.3173 H         1 UNK         0.0748 
    127 H127       38.2200   32.6564    5.6485 H         1 UNK         0.0771 
    128 H128       38.7017   31.0177    6.0508 H         1 UNK         0.0771 
    129 H129       37.8851   31.3368    4.5266 H         1 UNK         0.0771 
    130 H130       34.8875   30.1279    4.7326 H         1 UNK         0.2980 
    131 H131       34.3164   28.1003    4.2050 H         1 UNK         0.0545 
    132 H132       37.3402   28.4753    4.1480 H         1 UNK         0.3459 
    133 H133       37.9066   26.8274    4.0379 H         1 UNK         0.3459 
    134 H134       34.4226   27.6691    7.2335 H         1 UNK         0.0616 
    135 H135       33.7276   26.5027    6.1449 H         1 UNK         0.0616 
    136 H136       30.2241   27.6385    6.8500 H         1 UNK         0.0634 
    137 H137       31.4829   26.5540    7.3810 H         1 UNK         0.0634 
@<TRIPOS>BOND
     1    1    2 1    
     2    1   72 1    
     3    1   73 1    
     4    1   74 1    
     5    2    3 2    
     6    2    4 am   BACKBONE|DICT|INTERRES
     7    4    5 1    
     8    4   75 1    
     9    5    6 1    
    10    5   35 1    
    11    5   76 1    
    12    6    7 1    
    13    6   77 1    
    14    6   78 1    
    15    7    8 1    
    16    8    9 1    
    17    8   79 1    
    18    8   80 1    
    19    9   10 ar   
    20    9   14 ar   
    21   10   11 ar   
    22   10   81 1    
    23   11   12 ar   
    24   11   71 1    
    25   12   13 ar   
    26   12   82 1    
    27   13   14 ar   
    28   13   15 1    
    29   14   83 1    
    30   15   16 1    
    31   15   84 1    
    32   15   85 1    
    33   16   17 1    
    34   17   18 1    
    35   17   86 1    
    36   17   87 1    
    37   18   19 1    
    38   18   37 1    
    39   18   88 1    
    40   19   20 am   BACKBONE|DICT|INTERRES
    41   19   89 1    
    42   20   21 2    
    43   20   22 1    
    44   22   23 1    
    45   22   24 1    
    46   22   90 1    
    47   23   91 1    
    48   23   92 1    
    49   23   93 1    
    50   24   25 am   BACKBONE|DICT|INTERRES
    51   24   94 1    
    52   25   26 2    
    53   25   27 1    
    54   27   28 1    
    55   27   29 1    
    56   27   95 1    
    57   28   96 1    
    58   28   97 1    
    59   28   98 1    
    60   29   30 am   BACKBONE|DICT|INTERRES
    61   29   99 1    
    62   30   31 2    
    63   30   32 1    
    64   32   33 1    
    65   32   34 1    
    66   32  100 1    
    67   33  101 1    
    68   33  102 1    
    69   33  103 1    
    70   34   35 am   BACKBONE|DICT|INTERRES
    71   34  104 1    
    72   35   36 2    
    73   37   38 2    
    74   37   39 am   BACKBONE|DICT|INTERRES
    75   39   40 1    
    76   39  105 1    
    77   40   41 1    
    78   40   42 1    
    79   40  106 1    
    80   41  107 1    
    81   41  108 1    
    82   41  109 1    
    83   42   43 2    
    84   42   44 am   BACKBONE|DICT|INTERRES
    85   44   45 1    
    86   44  110 1    
    87   45   46 1    
    88   45   47 1    
    89   45  111 1    
    90   46  112 1    
    91   46  113 1    
    92   46  114 1    
    93   47   48 2    
    94   47   49 am   BACKBONE|DICT|INTERRES
    95   49   50 1    
    96   49  115 1    
    97   50   51 1    
    98   50   52 1    
    99   50  116 1    
   100   51  117 1    
   101   51  118 1    
   102   51  119 1    
   103   52   53 2    
   104   52   54 am   BACKBONE|DICT|INTERRES
   105   54   55 1    
   106   54  120 1    
   107   55   56 1    
   108   55   57 1    
   109   55  121 1    
   110   56  122 1    
   111   56  123 1    
   112   56  124 1    
   113   57   58 2    
   114   57   59 am   BACKBONE|DICT|INTERRES
   115   59   60 1    
   116   59  125 1    
   117   60   61 1    
   118   60   62 1    
   119   60  126 1    
   120   61  127 1    
   121   61  128 1    
   122   61  129 1    
   123   62   63 2    
   124   62   64 am   BACKBONE|DICT|INTERRES
   125   64   65 1    
   126   64  130 1    
   127   65   66 1    
   128   65   69 1    
   129   65  131 1    
   130   66   67 am   BACKBONE|DICT|INTERRES
   131   66   68 2    
   132   67  132 1    
   133   67  133 1    
   134   69   70 1    
   135   69  134 1    
   136   69  135 1    
   137   70   71 1    
   138   71  136 1    
   139   71  137 1    
@<TRIPOS>SUBSTRUCTURE
     1 UNK         1 GROUP             0       ****    0 ROOT    
