@<TRIPOS>MOLECULE
3R136
137   139    1
SMALL
USER_CHARGES


@<TRIPOS>ATOM
      1 CA         30.9442   23.5012   -3.8681 C.3       0 UNK        -0.1979 
      2 C          30.1666   23.9909   -2.6570 C.2       0 UNK         0.4864 
      3 O          29.3337   24.8888   -2.7925 O.2       0 UNK        -0.5359 
      4 N          30.4203   23.3977   -1.4801 N.am      1 UNK        -0.4318 
      5 CA         29.8401   23.7440   -0.1726 C.3       1 UNK         0.0824 
      6 C6         30.2879   22.7566    0.9298 C.3       12 UNK        -0.0944 
      7 S7         32.0560   22.9178    1.3424 S.3       12 UNK        -0.2672 
      8 C8         32.0688   22.3963    3.0905 C.3       12 UNK         0.0333 
      9 C9         31.7288   23.5369    4.0428 C.ar      12 UNK        -0.0807 
     10 C10        32.7515   24.2953    4.6217 C.ar      12 UNK        -0.0894 
     11 C11        32.4550   25.3323    5.5133 C.ar      12 UNK        -0.0804 
     12 C12        31.1199   25.6064    5.8260 C.ar      12 UNK        -0.0824 
     13 C13        30.0874   24.8589    5.2509 C.ar      12 UNK        -0.0762 
     14 C14        30.3992   23.8177    4.3734 C.ar      12 UNK        -0.0782 
     15 C15        28.6358   25.1503    5.6049 C.3       12 UNK         0.0230 
     16 S16        28.0758   26.7579    4.9630 S.3       12 UNK        -0.2608 
     17 C17        27.8801   26.4420    3.1741 C.3       12 UNK        -0.0989 
     18 CA         27.8074   27.7695    2.3727 C.3       5 UNK         0.0716 
     19 N          28.0961   27.5884    0.9461 N.am      5 UNK        -0.4135 
     20 C          28.5737   28.5585    0.1505 C.2       4 UNK         0.5031 
     21 O          28.7902   29.7064    0.5432 O.2       4 UNK        -0.5229 
     22 CA         28.8913   28.2201   -1.3139 C.3       4 UNK         0.0329 
     23 CB         30.3554   27.7767   -1.4592 C.3       4 UNK        -0.2001 
     24 N          28.0167   27.2137   -1.9143 N.am      4 UNK        -0.4303 
     25 C          26.7342   27.4208   -2.2460 C.2       3 UNK         0.5044 
     26 O          26.1142   28.4506   -1.9793 O.2       3 UNK        -0.5152 
     27 CA         26.0316   26.3034   -3.0316 C.3       3 UNK         0.0319 
     28 CB         26.4324   26.3569   -4.5152 C.3       3 UNK        -0.2001 
     29 N          26.3684   24.9886   -2.4890 N.am      3 UNK        -0.4354 
     30 C          25.5759   24.2767   -1.6761 C.2       2 UNK         0.4964 
     31 O          24.4271   24.6035   -1.3758 O.2       2 UNK        -0.5047 
     32 CA         26.1594   22.9803   -1.0810 C.3       2 UNK         0.0288 
     33 CB         25.7533   21.7673   -1.9339 C.3       2 UNK        -0.2113 
     34 N          27.6175   22.9914   -0.9246 N.am      2 UNK        -0.4145 
     35 C          28.3027   23.8617   -0.1679 C.2       1 UNK         0.5006 
     36 O          27.7769   24.7587    0.4912 O.2       1 UNK        -0.5103 
     37 C          26.4968   28.5590    2.5942 C.2       5 UNK         0.5055 
     38 O          25.4957   28.0002    3.0462 O.2       5 UNK        -0.5220 
     39 N          26.5393   29.8630    2.2910 N.am      6 UNK        -0.4450 
     40 CA         25.5233   30.8458    2.6833 C.3       6 UNK         0.0367 
     41 CB         25.6689   32.1000    1.8073 C.3       6 UNK        -0.1929 
     42 C          25.6259   31.2140    4.1774 C.2       6 UNK         0.5070 
     43 O          24.6278   31.6086    4.7800 O.2       6 UNK        -0.5237 
     44 N          26.8293   31.0613    4.7415 N.am      7 UNK        -0.4739 
     45 CA         27.1571   31.2067    6.1596 C.3       7 UNK         0.0276 
     46 CB         27.3871   32.6849    6.5223 C.3       7 UNK        -0.1927 
     47 C          28.3871   30.3452    6.4741 C.2       7 UNK         0.5013 
     48 O          28.3753   29.5926    7.4478 O.2       7 UNK        -0.5193 
     49 N          29.3982   30.4324    5.6019 N.am      8 UNK        -0.4253 
     50 CA         30.5428   29.5352    5.5067 C.3       8 UNK         0.0242 
     51 CB         31.6887   30.0289    6.4048 C.3       8 UNK        -0.2000 
     52 C          30.9560   29.5217    4.0329 C.2       8 UNK         0.4948 
     53 O          30.7950   30.5438    3.3599 O.2       8 UNK        -0.5275 
     54 N          31.4947   28.3977    3.5462 N.am      9 UNK        -0.4246 
     55 CA         31.9163   28.2038    2.1523 C.3       9 UNK         0.0261 
     56 CB         31.9346   26.6945    1.8464 C.3       9 UNK        -0.1959 
     57 C          33.2608   28.8931    1.8324 C.2       9 UNK         0.5033 
     58 O          34.1838   28.2426    1.3394 O.2       9 UNK        -0.5390 
     59 N          33.3494   30.1946    2.1488 N.am      10 UNK        -0.4215 
     60 CA         34.5386   31.0587    2.0900 C.3       10 UNK         0.0240 
     61 CB         34.9703   31.3010    0.6278 C.3       10 UNK        -0.1982 
     62 C          35.6916   30.5512    2.9842 C.2       10 UNK         0.4970 
     63 O          36.8617   30.6740    2.6172 O.2       10 UNK        -0.4916 
     64 N          35.3298   29.9740    4.1370 N.am      11 UNK        -0.4279 
     65 CA         36.2371   29.2799    5.0660 C.3       11 UNK         0.1003 
     66 C          37.0991   30.2150    5.9626 C.2       11 UNK         0.5709 
     67 N          36.8705   31.5230    5.9768 N.am      11 UNK        -0.7358 
     68 O          37.9996   29.7441    6.6535 O.2       11 UNK        -0.4999 
     69 C69        35.4800   28.2229    5.9174 C.3       12 UNK        -0.0954 
     70 S70        34.4909   27.0859    4.8901 S.3       12 UNK        -0.2268 
     71 C71        33.5765   26.1457    6.1464 C.3       12 UNK         0.0203 
     72 H72        31.6378   22.7005   -3.6122 H         1 UNK         0.0888 
     73 H73        30.2577   23.1277   -4.6272 H         1 UNK         0.0888 
     74 H74        31.5164   24.3217   -4.3000 H         1 UNK         0.0888 
     75 H75        31.1234   22.6727   -1.4473 H         1 UNK         0.3017 
     76 H76        30.2193   24.7338    0.0851 H         1 UNK         0.0873 
     77 H77        29.7072   22.9179    1.8355 H         1 UNK         0.0745 
     78 H78        30.0907   21.7252    0.6308 H         1 UNK         0.0745 
     79 H79        31.3792   21.5629    3.2338 H         1 UNK         0.0705 
     80 H80        33.0603   22.0062    3.3255 H         1 UNK         0.0705 
     81 H81        33.7832   24.0820    4.3767 H         1 UNK         0.1334 
     82 H82        30.8784   26.3938    6.5265 H         1 UNK         0.1417 
     83 H83        29.6004   23.2186    3.9624 H         1 UNK         0.1562 
     84 H84        28.5313   25.1533    6.6907 H         1 UNK         0.0748 
     85 H85        27.9721   24.3660    5.2373 H         1 UNK         0.0748 
     86 H86        27.0018   25.8176    2.9997 H         1 UNK         0.0940 
     87 H87        28.7375   25.8557    2.8424 H         1 UNK         0.0940 
     88 H88        28.6070   28.3986    2.7670 H         1 UNK         0.0703 
     89 H89        27.9169   26.6618    0.5677 H         1 UNK         0.3081 
     90 H90        28.7688   29.1423   -1.8862 H         1 UNK         0.0719 
     91 H91        30.5443   26.8371   -0.9422 H         1 UNK         0.0809 
     92 H92        30.6241   27.6382   -2.5067 H         1 UNK         0.0809 
     93 H93        31.0363   28.5228   -1.0474 H         1 UNK         0.0809 
     94 H94        28.4631   26.3455   -2.2062 H         1 UNK         0.2990 
     95 H95        24.9551   26.4773   -2.9695 H         1 UNK         0.0690 
     96 H96        25.8954   25.6067   -5.0958 H         1 UNK         0.0788 
     97 H97        27.5008   26.1848   -4.6544 H         1 UNK         0.0788 
     98 H98        26.1984   27.3305   -4.9481 H         1 UNK         0.0788 
     99 H99        27.3150   24.6633   -2.6554 H         1 UNK         0.2993 
    100 H100       25.7255   22.8621   -0.0856 H         1 UNK         0.0949 
    101 H101       26.1839   21.8158   -2.9350 H         1 UNK         0.0767 
    102 H102       26.0738   20.8323   -1.4737 H         1 UNK         0.0767 
    103 H103       24.6694   21.7150   -2.0473 H         1 UNK         0.0767 
    104 H104       28.1367   22.2991   -1.4449 H         1 UNK         0.3013 
    105 H105       27.3696   30.2060    1.8137 H         1 UNK         0.3121 
    106 H106       24.5334   30.4175    2.5110 H         1 UNK         0.0774 
    107 H107       26.6434   32.5730    1.9354 H         1 UNK         0.0815 
    108 H108       24.9102   32.8419    2.0606 H         1 UNK         0.0815 
    109 H109       25.5477   31.8613    0.7505 H         1 UNK         0.0815 
    110 H110       27.5619   30.6834    4.1594 H         1 UNK         0.2987 
    111 H111       26.3249   30.8225    6.7543 H         1 UNK         0.0949 
    112 H112       28.1858   33.1299    5.9280 H         1 UNK         0.0806 
    113 H113       26.4849   33.2759    6.3643 H         1 UNK         0.0806 
    114 H114       27.6622   32.7895    7.5726 H         1 UNK         0.0806 
    115 H115       29.3570   31.1032    4.8441 H         1 UNK         0.3010 
    116 H116       30.2444   28.5306    5.8070 H         1 UNK         0.0829 
    117 H117       31.3828   30.0670    7.4505 H         1 UNK         0.0813 
    118 H118       32.5459   29.3593    6.3435 H         1 UNK         0.0813 
    119 H119       32.0263   31.0260    6.1189 H         1 UNK         0.0813 
    120 H120       31.6427   27.6109    4.1634 H         1 UNK         0.3038 
    121 H121       31.1713   28.6626    1.5015 H         1 UNK         0.0769 
    122 H122       32.6716   26.1714    2.4559 H         1 UNK         0.0811 
    123 H123       32.1914   26.5054    0.8039 H         1 UNK         0.0811 
    124 H124       30.9642   26.2354    2.0307 H         1 UNK         0.0811 
    125 H125       32.5073   30.6156    2.5380 H         1 UNK         0.3204 
    126 H126       34.2364   32.0206    2.5065 H         1 UNK         0.0748 
    127 H127       35.7661   32.0449    0.5724 H         1 UNK         0.0771 
    128 H128       35.3444   30.3900    0.1595 H         1 UNK         0.0771 
    129 H129       34.1405   31.6710    0.0257 H         1 UNK         0.0771 
    130 H130       34.3486   29.9108    4.3559 H         1 UNK         0.2980 
    131 H131       36.9550   28.7320    4.4525 H         1 UNK         0.0545 
    132 H132       37.4396   32.1175    6.5585 H         1 UNK         0.3459 
    133 H133       36.1405   31.9202    5.4084 H         1 UNK         0.3459 
    134 H134       36.1830   27.6247    6.5000 H         1 UNK         0.0616 
    135 H135       34.8217   28.7133    6.6359 H         1 UNK         0.0616 
    136 H136       33.1784   26.8342    6.8933 H         1 UNK         0.0634 
    137 H137       34.2634   25.4786    6.6689 H         1 UNK         0.0634 
@<TRIPOS>BOND
     1    1    2 1    
     2    1   72 1    
     3    1   73 1    
     4    1   74 1    
     5    2    3 2    
     6    2    4 am   BACKBONE|DICT|INTERRES
     7    4    5 1    
     8    4   75 1    
     9    5    6 1    
    10    5   35 1    
    11    5   76 1    
    12    6    7 1    
    13    6   77 1    
    14    6   78 1    
    15    7    8 1    
    16    8    9 1    
    17    8   79 1    
    18    8   80 1    
    19    9   10 ar   
    20    9   14 ar   
    21   10   11 ar   
    22   10   81 1    
    23   11   12 ar   
    24   11   71 1    
    25   12   13 ar   
    26   12   82 1    
    27   13   14 ar   
    28   13   15 1    
    29   14   83 1    
    30   15   16 1    
    31   15   84 1    
    32   15   85 1    
    33   16   17 1    
    34   17   18 1    
    35   17   86 1    
    36   17   87 1    
    37   18   19 1    
    38   18   37 1    
    39   18   88 1    
    40   19   20 am   BACKBONE|DICT|INTERRES
    41   19   89 1    
    42   20   21 2    
    43   20   22 1    
    44   22   23 1    
    45   22   24 1    
    46   22   90 1    
    47   23   91 1    
    48   23   92 1    
    49   23   93 1    
    50   24   25 am   BACKBONE|DICT|INTERRES
    51   24   94 1    
    52   25   26 2    
    53   25   27 1    
    54   27   28 1    
    55   27   29 1    
    56   27   95 1    
    57   28   96 1    
    58   28   97 1    
    59   28   98 1    
    60   29   30 am   BACKBONE|DICT|INTERRES
    61   29   99 1    
    62   30   31 2    
    63   30   32 1    
    64   32   33 1    
    65   32   34 1    
    66   32  100 1    
    67   33  101 1    
    68   33  102 1    
    69   33  103 1    
    70   34   35 am   BACKBONE|DICT|INTERRES
    71   34  104 1    
    72   35   36 2    
    73   37   38 2    
    74   37   39 am   BACKBONE|DICT|INTERRES
    75   39   40 1    
    76   39  105 1    
    77   40   41 1    
    78   40   42 1    
    79   40  106 1    
    80   41  107 1    
    81   41  108 1    
    82   41  109 1    
    83   42   43 2    
    84   42   44 am   BACKBONE|DICT|INTERRES
    85   44   45 1    
    86   44  110 1    
    87   45   46 1    
    88   45   47 1    
    89   45  111 1    
    90   46  112 1    
    91   46  113 1    
    92   46  114 1    
    93   47   48 2    
    94   47   49 am   BACKBONE|DICT|INTERRES
    95   49   50 1    
    96   49  115 1    
    97   50   51 1    
    98   50   52 1    
    99   50  116 1    
   100   51  117 1    
   101   51  118 1    
   102   51  119 1    
   103   52   53 2    
   104   52   54 am   BACKBONE|DICT|INTERRES
   105   54   55 1    
   106   54  120 1    
   107   55   56 1    
   108   55   57 1    
   109   55  121 1    
   110   56  122 1    
   111   56  123 1    
   112   56  124 1    
   113   57   58 2    
   114   57   59 am   BACKBONE|DICT|INTERRES
   115   59   60 1    
   116   59  125 1    
   117   60   61 1    
   118   60   62 1    
   119   60  126 1    
   120   61  127 1    
   121   61  128 1    
   122   61  129 1    
   123   62   63 2    
   124   62   64 am   BACKBONE|DICT|INTERRES
   125   64   65 1    
   126   64  130 1    
   127   65   66 1    
   128   65   69 1    
   129   65  131 1    
   130   66   67 am   BACKBONE|DICT|INTERRES
   131   66   68 2    
   132   67  132 1    
   133   67  133 1    
   134   69   70 1    
   135   69  134 1    
   136   69  135 1    
   137   70   71 1    
   138   71  136 1    
   139   71  137 1    
@<TRIPOS>SUBSTRUCTURE
     1 UNK         1 GROUP             0       ****    0 ROOT    
