@<TRIPOS>MOLECULE
3R136
137   139    1
SMALL
USER_CHARGES


@<TRIPOS>ATOM
      1 CA         26.3748   23.5500    3.9859 C.3       0 UNK        -0.1979 
      2 C          26.6099   22.7789    2.6954 C.2       0 UNK         0.4864 
      3 O          26.0524   21.6950    2.5206 O.2       0 UNK        -0.5359 
      4 N          27.4154   23.3432    1.7885 N.am      1 UNK        -0.4318 
      5 CA         27.7679   22.7762    0.4809 C.3       1 UNK         0.0824 
      6 C6         29.3053   22.6658    0.3074 C.3       12 UNK        -0.0944 
      7 S7         30.0457   21.4677    1.4596 S.3       12 UNK        -0.2672 
      8 C8         31.8037   21.9556    1.3858 C.3       12 UNK         0.0333 
      9 C9         32.2004   23.1160    2.3004 C.ar      12 UNK        -0.0807 
     10 C10        33.3176   23.8899    1.9640 C.ar      12 UNK        -0.0894 
     11 C11        33.7783   24.8943    2.8212 C.ar      12 UNK        -0.0804 
     12 C12        33.1056   25.1323    4.0221 C.ar      12 UNK        -0.0824 
     13 C13        31.9857   24.3724    4.3733 C.ar      12 UNK        -0.0762 
     14 C14        31.5362   23.3705    3.5082 C.ar      12 UNK        -0.0782 
     15 C15        31.3187   24.5750    5.7271 C.3       12 UNK         0.0230 
     16 S16        30.6959   26.2676    5.9584 S.3       12 UNK        -0.2608 
     17 C17        29.0517   26.1889    5.1753 C.3       12 UNK        -0.0989 
     18 CA         28.7400   27.5201    4.4448 C.3       5 UNK         0.0716 
     19 N          29.3574   27.6310    3.1161 N.am      5 UNK        -0.4135 
     20 C          29.1263   26.9157    2.0106 C.2       4 UNK         0.5031 
     21 O          28.3130   25.9888    1.9369 O.2       4 UNK        -0.5229 
     22 CA         29.9147   27.3346    0.7690 C.3       4 UNK         0.0329 
     23 CB         31.2419   26.5706    0.6918 C.3       4 UNK        -0.2001 
     24 N          29.1186   27.0610   -0.4225 N.am      4 UNK        -0.4303 
     25 C          29.0452   27.8457   -1.5046 C.2       3 UNK         0.5044 
     26 O          29.6752   28.8961   -1.6298 O.2       3 UNK        -0.5152 
     27 CA         28.1242   27.3920   -2.6532 C.3       3 UNK         0.0319 
     28 CB         28.9589   26.8972   -3.8458 C.3       3 UNK        -0.2001 
     29 N          27.1875   26.3354   -2.2667 N.am      3 UNK        -0.4354 
     30 C          26.0632   26.5121   -1.5641 C.2       2 UNK         0.4964 
     31 O          25.6655   27.6080   -1.1726 O.2       2 UNK        -0.5047 
     32 CA         25.2682   25.2449   -1.2048 C.3       2 UNK         0.0288 
     33 CB         24.6938   24.5505   -2.4570 C.3       2 UNK        -0.2113 
     34 N          26.0260   24.3144   -0.3535 N.am      2 UNK        -0.4145 
     35 C          27.1248   23.6019   -0.6554 C.2       1 UNK         0.5006 
     36 O          27.6434   23.6030   -1.7740 O.2       1 UNK        -0.5103 
     37 C          27.2408   27.8821    4.4707 C.2       5 UNK         0.5055 
     38 O          26.8196   28.6052    5.3743 O.2       5 UNK        -0.5220 
     39 N          26.4703   27.4246    3.4772 N.am      6 UNK        -0.4450 
     40 CA         25.0898   27.8456    3.2389 C.3       6 UNK         0.0367 
     41 CB         24.4086   26.8555    2.2837 C.3       6 UNK        -0.1929 
     42 C          25.0282   29.2820    2.6892 C.2       6 UNK         0.5070 
     43 O          24.1950   30.0674    3.1411 O.2       6 UNK        -0.5237 
     44 N          25.9256   29.6021    1.7448 N.am      7 UNK        -0.4739 
     45 CA         26.1081   30.9476    1.1968 C.3       7 UNK         0.0276 
     46 CB         26.7700   30.8609   -0.1897 C.3       7 UNK        -0.1927 
     47 C          26.9248   31.8292    2.1550 C.2       7 UNK         0.5013 
     48 O          26.4279   32.8604    2.6090 O.2       7 UNK        -0.5193 
     49 N          28.1536   31.3936    2.4561 N.am      8 UNK        -0.4253 
     50 CA         29.0875   32.0253    3.3838 C.3       8 UNK         0.0242 
     51 CB         29.7616   33.2442    2.7275 C.3       8 UNK        -0.2000 
     52 C          30.1299   30.9783    3.7858 C.2       8 UNK         0.4948 
     53 O          30.4911   30.1386    2.9564 O.2       8 UNK        -0.5275 
     54 N          30.5787   31.0283    5.0429 N.am      9 UNK        -0.4246 
     55 CA         31.5964   30.1334    5.5995 C.3       9 UNK         0.0261 
     56 CB         31.2848   29.9126    7.0908 C.3       9 UNK        -0.1959 
     57 C          33.0112   30.7086    5.4105 C.2       9 UNK         0.5033 
     58 O          33.1542   31.8726    5.0276 O.2       9 UNK        -0.5390 
     59 N          34.0209   29.8811    5.7235 N.am      10 UNK        -0.4215 
     60 CA         35.4625   30.1614    5.6652 C.3       10 UNK         0.0240 
     61 CB         35.8560   31.2781    6.6574 C.3       10 UNK        -0.1982 
     62 C          35.9368   30.4395    4.2272 C.2       10 UNK         0.4970 
     63 O          36.2264   31.5854    3.8767 O.2       10 UNK        -0.4916 
     64 N          35.9790   29.3700    3.4225 N.am      11 UNK        -0.4279 
     65 CA         36.4094   29.3617    2.0149 C.3       11 UNK         0.1003 
     66 C          37.8406   29.9301    1.7993 C.2       11 UNK         0.5709 
     67 N          38.0622   30.6654    0.7181 N.am      11 UNK        -0.7358 
     68 O          38.7571   29.6692    2.5772 O.2       11 UNK        -0.4999 
     69 C69        36.3105   27.9409    1.3978 C.3       12 UNK        -0.0954 
     70 S70        34.6506   27.2008    1.5523 S.3       12 UNK        -0.2268 
     71 C71        35.0335   25.6850    2.4803 C.3       12 UNK         0.0203 
     72 H72        26.8881   23.0612    4.8135 H         1 UNK         0.0888 
     73 H73        26.7358   24.5747    3.9168 H         1 UNK         0.0888 
     74 H74        25.3103   23.5852    4.2164 H         1 UNK         0.0888 
     75 H75        27.8194   24.2611    1.9736 H         1 UNK         0.3017 
     76 H76        27.3499   21.7724    0.3809 H         1 UNK         0.0873 
     77 H77        29.5700   22.3385   -0.6999 H         1 UNK         0.0745 
     78 H78        29.7732   23.6398    0.4514 H         1 UNK         0.0745 
     79 H79        32.0613   22.1842    0.3502 H         1 UNK         0.0705 
     80 H80        32.4052   21.0901    1.6658 H         1 UNK         0.0705 
     81 H81        33.8508   23.6915    1.0441 H         1 UNK         0.1334 
     82 H82        33.4666   25.8950    4.6982 H         1 UNK         0.1417 
     83 H83        30.6910   22.7628    3.7992 H         1 UNK         0.1562 
     84 H84        32.0540   24.3695    6.5062 H         1 UNK         0.0748 
     85 H85        30.5062   23.8636    5.8830 H         1 UNK         0.0748 
     86 H86        28.3305   25.9880    5.9704 H         1 UNK         0.0940 
     87 H87        28.9984   25.3400    4.4926 H         1 UNK         0.0940 
     88 H88        29.2019   28.3227    5.0212 H         1 UNK         0.0703 
     89 H89        29.9963   28.4212    3.0298 H         1 UNK         0.3081 
     90 H90        30.1228   28.4044    0.8406 H         1 UNK         0.0719 
     91 H91        31.0930   25.5015    0.5487 H         1 UNK         0.0809 
     92 H92        31.8640   26.9355   -0.1253 H         1 UNK         0.0809 
     93 H93        31.8074   26.6954    1.6150 H         1 UNK         0.0809 
     94 H94        28.5299   26.2420   -0.3683 H         1 UNK         0.2990 
     95 H95        27.5503   28.2641   -2.9740 H         1 UNK         0.0690 
     96 H96        28.3242   26.6373   -4.6933 H         1 UNK         0.0788 
     97 H97        29.5502   26.0179   -3.5864 H         1 UNK         0.0788 
     98 H98        29.6517   27.6682   -4.1862 H         1 UNK         0.0788 
     99 H99        27.4559   25.3771   -2.4762 H         1 UNK         0.2993 
    100 H100       24.4141   25.5696   -0.6089 H         1 UNK         0.0949 
    101 H101       25.4717   24.1940   -3.1323 H         1 UNK         0.0767 
    102 H102       24.0738   23.6967   -2.1838 H         1 UNK         0.0767 
    103 H103       24.0652   25.2374   -3.0254 H         1 UNK         0.0767 
    104 H104       25.6964   24.2420    0.5985 H         1 UNK         0.3013 
    105 H105       26.9146   26.8290    2.7831 H         1 UNK         0.3121 
    106 H106       24.5514   27.8259    4.1892 H         1 UNK         0.0774 
    107 H107       23.3776   27.1511    2.0846 H         1 UNK         0.0815 
    108 H108       24.9261   26.8097    1.3275 H         1 UNK         0.0815 
    109 H109       24.3832   25.8502    2.7042 H         1 UNK         0.0815 
    110 H110       26.5380   28.8796    1.3986 H         1 UNK         0.2987 
    111 H111       25.1275   31.4125    1.0698 H         1 UNK         0.0949 
    112 H112       26.9283   31.8556   -0.6087 H         1 UNK         0.0806 
    113 H113       27.7400   30.3645   -0.1546 H         1 UNK         0.0806 
    114 H114       26.1421   30.3126   -0.8922 H         1 UNK         0.0806 
    115 H115       28.4971   30.5355    2.0473 H         1 UNK         0.3010 
    116 H116       28.5401   32.3425    4.2742 H         1 UNK         0.0829 
    117 H117       29.0337   34.0130    2.4681 H         1 UNK         0.0813 
    118 H118       30.4869   33.7004    3.4026 H         1 UNK         0.0813 
    119 H119       30.2937   32.9656    1.8169 H         1 UNK         0.0813 
    120 H120       30.2808   31.7877    5.6384 H         1 UNK         0.3038 
    121 H121       31.5551   29.1685    5.0894 H         1 UNK         0.0769 
    122 H122       31.9728   29.1957    7.5403 H         1 UNK         0.0811 
    123 H123       30.2793   29.5141    7.2288 H         1 UNK         0.0811 
    124 H124       31.3598   30.8391    7.6616 H         1 UNK         0.0811 
    125 H125       33.7792   28.9473    6.0254 H         1 UNK         0.3204 
    126 H126       35.9689   29.2523    5.9942 H         1 UNK         0.0748 
    127 H127       36.9367   31.4252    6.6657 H         1 UNK         0.0771 
    128 H128       35.4029   32.2362    6.4012 H         1 UNK         0.0771 
    129 H129       35.5548   31.0279    7.6746 H         1 UNK         0.0771 
    130 H130       35.7128   28.4723    3.7953 H         1 UNK         0.2980 
    131 H131       35.7112   30.0090    1.4806 H         1 UNK         0.0545 
    132 H132       38.9885   31.0277    0.5540 H         1 UNK         0.3459 
    133 H133       37.3211   30.8724    0.0666 H         1 UNK         0.3459 
    134 H134       36.5520   27.9746    0.3338 H         1 UNK         0.0616 
    135 H135       37.0490   27.2774    1.8523 H         1 UNK         0.0616 
    136 H136       35.5668   25.9461    3.3956 H         1 UNK         0.0634 
    137 H137       35.7153   25.0684    1.8924 H         1 UNK         0.0634 
@<TRIPOS>BOND
     1    1    2 1    
     2    1   72 1    
     3    1   73 1    
     4    1   74 1    
     5    2    3 2    
     6    2    4 am   BACKBONE|DICT|INTERRES
     7    4    5 1    
     8    4   75 1    
     9    5    6 1    
    10    5   35 1    
    11    5   76 1    
    12    6    7 1    
    13    6   77 1    
    14    6   78 1    
    15    7    8 1    
    16    8    9 1    
    17    8   79 1    
    18    8   80 1    
    19    9   10 ar   
    20    9   14 ar   
    21   10   11 ar   
    22   10   81 1    
    23   11   12 ar   
    24   11   71 1    
    25   12   13 ar   
    26   12   82 1    
    27   13   14 ar   
    28   13   15 1    
    29   14   83 1    
    30   15   16 1    
    31   15   84 1    
    32   15   85 1    
    33   16   17 1    
    34   17   18 1    
    35   17   86 1    
    36   17   87 1    
    37   18   19 1    
    38   18   37 1    
    39   18   88 1    
    40   19   20 am   BACKBONE|DICT|INTERRES
    41   19   89 1    
    42   20   21 2    
    43   20   22 1    
    44   22   23 1    
    45   22   24 1    
    46   22   90 1    
    47   23   91 1    
    48   23   92 1    
    49   23   93 1    
    50   24   25 am   BACKBONE|DICT|INTERRES
    51   24   94 1    
    52   25   26 2    
    53   25   27 1    
    54   27   28 1    
    55   27   29 1    
    56   27   95 1    
    57   28   96 1    
    58   28   97 1    
    59   28   98 1    
    60   29   30 am   BACKBONE|DICT|INTERRES
    61   29   99 1    
    62   30   31 2    
    63   30   32 1    
    64   32   33 1    
    65   32   34 1    
    66   32  100 1    
    67   33  101 1    
    68   33  102 1    
    69   33  103 1    
    70   34   35 am   BACKBONE|DICT|INTERRES
    71   34  104 1    
    72   35   36 2    
    73   37   38 2    
    74   37   39 am   BACKBONE|DICT|INTERRES
    75   39   40 1    
    76   39  105 1    
    77   40   41 1    
    78   40   42 1    
    79   40  106 1    
    80   41  107 1    
    81   41  108 1    
    82   41  109 1    
    83   42   43 2    
    84   42   44 am   BACKBONE|DICT|INTERRES
    85   44   45 1    
    86   44  110 1    
    87   45   46 1    
    88   45   47 1    
    89   45  111 1    
    90   46  112 1    
    91   46  113 1    
    92   46  114 1    
    93   47   48 2    
    94   47   49 am   BACKBONE|DICT|INTERRES
    95   49   50 1    
    96   49  115 1    
    97   50   51 1    
    98   50   52 1    
    99   50  116 1    
   100   51  117 1    
   101   51  118 1    
   102   51  119 1    
   103   52   53 2    
   104   52   54 am   BACKBONE|DICT|INTERRES
   105   54   55 1    
   106   54  120 1    
   107   55   56 1    
   108   55   57 1    
   109   55  121 1    
   110   56  122 1    
   111   56  123 1    
   112   56  124 1    
   113   57   58 2    
   114   57   59 am   BACKBONE|DICT|INTERRES
   115   59   60 1    
   116   59  125 1    
   117   60   61 1    
   118   60   62 1    
   119   60  126 1    
   120   61  127 1    
   121   61  128 1    
   122   61  129 1    
   123   62   63 2    
   124   62   64 am   BACKBONE|DICT|INTERRES
   125   64   65 1    
   126   64  130 1    
   127   65   66 1    
   128   65   69 1    
   129   65  131 1    
   130   66   67 am   BACKBONE|DICT|INTERRES
   131   66   68 2    
   132   67  132 1    
   133   67  133 1    
   134   69   70 1    
   135   69  134 1    
   136   69  135 1    
   137   70   71 1    
   138   71  136 1    
   139   71  137 1    
@<TRIPOS>SUBSTRUCTURE
     1 UNK         1 GROUP             0       ****    0 ROOT    
