@<TRIPOS>MOLECULE
3R136
137   139    1
SMALL
USER_CHARGES


@<TRIPOS>ATOM
      1 CA         26.2710   24.4119    5.0194 C.3       0 UNK        -0.1979 
      2 C          26.5546   23.2513    4.0777 C.2       0 UNK         0.4864 
      3 O          25.8078   22.2709    4.0668 O.2       0 UNK        -0.5359 
      4 N          27.6212   23.3564    3.2744 N.am      1 UNK        -0.4318 
      5 CA         28.0635   22.3440    2.3076 C.3       1 UNK         0.0824 
      6 C6         29.5716   22.4809    1.9649 C.3       12 UNK        -0.0944 
      7 S7         30.6659   22.4328    3.4271 S.3       12 UNK        -0.2672 
      8 C8         31.0542   24.1972    3.6787 C.3       12 UNK         0.0333 
      9 C9         32.0773   24.7184    2.6778 C.ar      12 UNK        -0.0807 
     10 C10        33.4440   24.6087    2.9509 C.ar      12 UNK        -0.0894 
     11 C11        34.3911   25.0870    2.0402 C.ar      12 UNK        -0.0804 
     12 C12        33.9618   25.6780    0.8467 C.ar      12 UNK        -0.0824 
     13 C13        32.5978   25.7914    0.5604 C.ar      12 UNK        -0.0762 
     14 C14        31.6625   25.3200    1.4856 C.ar      12 UNK        -0.0782 
     15 C15        32.1333   26.3630   -0.7734 C.3       12 UNK         0.0230 
     16 S16        32.0564   28.1827   -0.7937 S.3       12 UNK        -0.2608 
     17 C17        30.6531   28.5464    0.3102 C.3       12 UNK        -0.0989 
     18 CA         29.3035   28.7534   -0.4255 C.3       5 UNK         0.0716 
     19 N          28.7315   27.4962   -0.8970 N.am      5 UNK        -0.4135 
     20 C          28.6509   27.0856   -2.1664 C.2       4 UNK         0.5031 
     21 O          29.1604   27.6781   -3.1183 O.2       4 UNK        -0.5229 
     22 CA         27.8575   25.7897   -2.4244 C.3       4 UNK         0.0329 
     23 CB         28.8102   24.5874   -2.5223 C.3       4 UNK        -0.2001 
     24 N          26.8288   25.5135   -1.4127 N.am      4 UNK        -0.4303 
     25 C          25.7103   26.2407   -1.2502 C.2       3 UNK         0.5044 
     26 O          25.4346   27.2151   -1.9524 O.2       3 UNK        -0.5152 
     27 CA         24.7519   25.8377   -0.1066 C.3       3 UNK         0.0319 
     28 CB         23.2895   26.2503   -0.3807 C.3       3 UNK        -0.2001 
     29 N          24.8322   24.4218    0.2746 N.am      3 UNK        -0.4354 
     30 C          24.5788   23.3498   -0.4938 C.2       2 UNK         0.4964 
     31 O          24.1556   23.4191   -1.6488 O.2       2 UNK        -0.5047 
     32 CA         24.8696   21.9674    0.1342 C.3       2 UNK         0.0288 
     33 CB         25.1950   20.8969   -0.9299 C.3       2 UNK        -0.2113 
     34 N          25.9153   21.9855    1.1709 N.am      2 UNK        -0.4145 
     35 C          27.1819   22.4104    1.0417 C.2       1 UNK         0.5006 
     36 O          27.6293   22.9065    0.0057 O.2       1 UNK        -0.5103 
     37 C          28.2812   29.3595    0.5487 C.2       5 UNK         0.5055 
     38 O          27.5454   28.6139    1.2040 O.2       5 UNK        -0.5220 
     39 N          28.3008   30.6923    0.6738 N.am      6 UNK        -0.4450 
     40 CA         27.6585   31.4218    1.7702 C.3       6 UNK         0.0367 
     41 CB         27.5898   32.9138    1.4071 C.3       6 UNK        -0.1929 
     42 C          28.4593   31.2278    3.0681 C.2       6 UNK         0.5070 
     43 O          29.6658   30.9879    2.9988 O.2       6 UNK        -0.5237 
     44 N          27.8025   31.3742    4.2258 N.am      7 UNK        -0.4739 
     45 CA         28.3653   31.1073    5.5598 C.3       7 UNK         0.0276 
     46 CB         27.3006   31.4055    6.6276 C.3       7 UNK        -0.1927 
     47 C          29.6769   31.8477    5.8909 C.2       7 UNK         0.5013 
     48 O          30.5096   31.3010    6.6141 O.2       7 UNK        -0.5193 
     49 N          29.8490   33.0564    5.3390 N.am      8 UNK        -0.4253 
     50 CA         31.0690   33.8587    5.4619 C.3       8 UNK         0.0242 
     51 CB         30.7423   35.3214    5.1183 C.3       8 UNK        -0.2000 
     52 C          32.2330   33.3528    4.5868 C.2       8 UNK         0.4948 
     53 O          33.3870   33.6313    4.9147 O.2       8 UNK        -0.5275 
     54 N          31.9219   32.6464    3.4915 N.am      9 UNK        -0.4246 
     55 CA         32.8890   32.1206    2.5245 C.3       9 UNK         0.0261 
     56 CB         32.3438   32.3495    1.1045 C.3       9 UNK        -0.1959 
     57 C          33.1897   30.6283    2.7399 C.2       9 UNK         0.5033 
     58 O          34.2522   30.1712    2.3178 O.2       9 UNK        -0.5390 
     59 N          32.2640   29.8983    3.3783 N.am      10 UNK        -0.4215 
     60 CA         32.2534   28.4489    3.6149 C.3       10 UNK         0.0240 
     61 CB         30.8368   28.0587    4.0831 C.3       10 UNK        -0.1982 
     62 C          33.3475   27.9124    4.5664 C.2       10 UNK         0.4970 
     63 O          33.0530   27.0799    5.4261 O.2       10 UNK        -0.4916 
     64 N          34.5871   28.3823    4.3915 N.am      11 UNK        -0.4279 
     65 CA         35.8108   27.9436    5.0833 C.3       11 UNK         0.1003 
     66 C          35.8117   28.1363    6.6322 C.2       11 UNK         0.5709 
     67 N          34.9690   28.9976    7.1899 N.am      11 UNK        -0.7358 
     68 O          36.6126   27.5301    7.3406 O.2       11 UNK        -0.4999 
     69 C69        36.2575   26.5214    4.6359 C.3       12 UNK        -0.0954 
     70 S70        36.6673   26.4662    2.8568 S.3       12 UNK        -0.2268 
     71 C71        35.8783   24.9183    2.3169 C.3       12 UNK         0.0203 
     72 H72        27.0044   25.2115    4.9155 H         1 UNK         0.0888 
     73 H73        25.2844   24.8276    4.8164 H         1 UNK         0.0888 
     74 H74        26.2896   24.0676    6.0531 H         1 UNK         0.0888 
     75 H75        28.1840   24.1921    3.3133 H         1 UNK         0.3017 
     76 H76        27.9201   21.3559    2.7511 H         1 UNK         0.0873 
     77 H77        29.7565   23.3911    1.3993 H         1 UNK         0.0745 
     78 H78        29.8751   21.6642    1.3072 H         1 UNK         0.0745 
     79 H79        31.4377   24.3300    4.6918 H         1 UNK         0.0705 
     80 H80        30.1369   24.7834    3.6266 H         1 UNK         0.0705 
     81 H81        33.7691   24.1438    3.8716 H         1 UNK         0.1334 
     82 H82        34.6914   26.0355    0.1327 H         1 UNK         0.1417 
     83 H83        30.6087   25.4142    1.2674 H         1 UNK         0.1562 
     84 H84        31.1598   25.9551   -1.0425 H         1 UNK         0.0748 
     85 H85        32.8162   26.0393   -1.5601 H         1 UNK         0.0748 
     86 H86        30.9303   29.4505    0.8545 H         1 UNK         0.0940 
     87 H87        30.5609   27.7715    1.0688 H         1 UNK         0.0940 
     88 H88        29.4362   29.4470   -1.2589 H         1 UNK         0.0703 
     89 H89        28.2023   26.9975   -0.1948 H         1 UNK         0.3081 
     90 H90        27.3561   25.9029   -3.3880 H         1 UNK         0.0719 
     91 H91        29.5748   24.7531   -3.2825 H         1 UNK         0.0809 
     92 H92        29.3223   24.3989   -1.5781 H         1 UNK         0.0809 
     93 H93        28.2731   23.6787   -2.7951 H         1 UNK         0.0809 
     94 H94        26.9773   24.6959   -0.8296 H         1 UNK         0.2990 
     95 H95        25.0889   26.4001    0.7656 H         1 UNK         0.0690 
     96 H96        22.6366   25.9718    0.4464 H         1 UNK         0.0788 
     97 H97        22.9005   25.7854   -1.2871 H         1 UNK         0.0788 
     98 H98        23.2037   27.3301   -0.5080 H         1 UNK         0.0788 
     99 H99        25.1711   24.2447    1.2093 H         1 UNK         0.2993 
    100 H100       23.9473   21.6681    0.6345 H         1 UNK         0.0949 
    101 H101       26.0769   21.1639   -1.5134 H         1 UNK         0.0767 
    102 H102       25.3776   19.9249   -0.4717 H         1 UNK         0.0767 
    103 H103       24.3673   20.7717   -1.6292 H         1 UNK         0.0767 
    104 H104       25.6256   21.6966    2.1012 H         1 UNK         0.3013 
    105 H105       28.9553   31.2200    0.1153 H         1 UNK         0.3121 
    106 H106       26.6463   31.0369    1.9127 H         1 UNK         0.0774 
    107 H107       28.5832   33.3459    1.2770 H         1 UNK         0.0815 
    108 H108       27.0322   33.0714    0.4837 H         1 UNK         0.0815 
    109 H109       27.0860   33.4851    2.1878 H         1 UNK         0.0815 
    110 H110       26.8183   31.6008    4.1942 H         1 UNK         0.2987 
    111 H111       28.5917   30.0397    5.5985 H         1 UNK         0.0949 
    112 H112       26.4117   30.7903    6.4864 H         1 UNK         0.0806 
    113 H113       27.6804   31.1947    7.6285 H         1 UNK         0.0806 
    114 H114       26.9929   32.4518    6.6097 H         1 UNK         0.0806 
    115 H115       29.1075   33.4271    4.7626 H         1 UNK         0.3010 
    116 H116       31.4024   33.8203    6.5015 H         1 UNK         0.0829 
    117 H117       30.3930   35.4276    4.0904 H         1 UNK         0.0813 
    118 H118       31.6240   35.9545    5.2294 H         1 UNK         0.0813 
    119 H119       29.9733   35.7225    5.7788 H         1 UNK         0.0813 
    120 H120       30.9515   32.3957    3.3295 H         1 UNK         0.3038 
    121 H121       33.8351   32.6591    2.6120 H         1 UNK         0.0769 
    122 H122       32.2165   33.4121    0.8976 H         1 UNK         0.0811 
    123 H123       31.3795   31.8630    0.9570 H         1 UNK         0.0811 
    124 H124       33.0281   31.9528    0.3529 H         1 UNK         0.0811 
    125 H125       31.3955   30.3728    3.6045 H         1 UNK         0.3204 
    126 H126       32.4364   27.9646    2.6545 H         1 UNK         0.0748 
    127 H127       30.5880   28.5360    5.0316 H         1 UNK         0.0771 
    128 H128       30.0768   28.3446    3.3568 H         1 UNK         0.0771 
    129 H129       30.7477   26.9838    4.2293 H         1 UNK         0.0771 
    130 H130       34.7174   29.0583    3.6412 H         1 UNK         0.2980 
    131 H131       36.5824   28.6357    4.7448 H         1 UNK         0.0545 
    132 H132       34.9834   29.1261    8.1891 H         1 UNK         0.3459 
    133 H133       34.3054   29.5003    6.6232 H         1 UNK         0.3459 
    134 H134       35.4857   25.7871    4.8698 H         1 UNK         0.0616 
    135 H135       37.1527   26.2048    5.1734 H         1 UNK         0.0616 
    136 H136       36.0525   24.1397    3.0613 H         1 UNK         0.0634 
    137 H137       36.3727   24.5789    1.4057 H         1 UNK         0.0634 
@<TRIPOS>BOND
     1    1    2 1    
     2    1   72 1    
     3    1   73 1    
     4    1   74 1    
     5    2    3 2    
     6    2    4 am   BACKBONE|DICT|INTERRES
     7    4    5 1    
     8    4   75 1    
     9    5    6 1    
    10    5   35 1    
    11    5   76 1    
    12    6    7 1    
    13    6   77 1    
    14    6   78 1    
    15    7    8 1    
    16    8    9 1    
    17    8   79 1    
    18    8   80 1    
    19    9   10 ar   
    20    9   14 ar   
    21   10   11 ar   
    22   10   81 1    
    23   11   12 ar   
    24   11   71 1    
    25   12   13 ar   
    26   12   82 1    
    27   13   14 ar   
    28   13   15 1    
    29   14   83 1    
    30   15   16 1    
    31   15   84 1    
    32   15   85 1    
    33   16   17 1    
    34   17   18 1    
    35   17   86 1    
    36   17   87 1    
    37   18   19 1    
    38   18   37 1    
    39   18   88 1    
    40   19   20 am   BACKBONE|DICT|INTERRES
    41   19   89 1    
    42   20   21 2    
    43   20   22 1    
    44   22   23 1    
    45   22   24 1    
    46   22   90 1    
    47   23   91 1    
    48   23   92 1    
    49   23   93 1    
    50   24   25 am   BACKBONE|DICT|INTERRES
    51   24   94 1    
    52   25   26 2    
    53   25   27 1    
    54   27   28 1    
    55   27   29 1    
    56   27   95 1    
    57   28   96 1    
    58   28   97 1    
    59   28   98 1    
    60   29   30 am   BACKBONE|DICT|INTERRES
    61   29   99 1    
    62   30   31 2    
    63   30   32 1    
    64   32   33 1    
    65   32   34 1    
    66   32  100 1    
    67   33  101 1    
    68   33  102 1    
    69   33  103 1    
    70   34   35 am   BACKBONE|DICT|INTERRES
    71   34  104 1    
    72   35   36 2    
    73   37   38 2    
    74   37   39 am   BACKBONE|DICT|INTERRES
    75   39   40 1    
    76   39  105 1    
    77   40   41 1    
    78   40   42 1    
    79   40  106 1    
    80   41  107 1    
    81   41  108 1    
    82   41  109 1    
    83   42   43 2    
    84   42   44 am   BACKBONE|DICT|INTERRES
    85   44   45 1    
    86   44  110 1    
    87   45   46 1    
    88   45   47 1    
    89   45  111 1    
    90   46  112 1    
    91   46  113 1    
    92   46  114 1    
    93   47   48 2    
    94   47   49 am   BACKBONE|DICT|INTERRES
    95   49   50 1    
    96   49  115 1    
    97   50   51 1    
    98   50   52 1    
    99   50  116 1    
   100   51  117 1    
   101   51  118 1    
   102   51  119 1    
   103   52   53 2    
   104   52   54 am   BACKBONE|DICT|INTERRES
   105   54   55 1    
   106   54  120 1    
   107   55   56 1    
   108   55   57 1    
   109   55  121 1    
   110   56  122 1    
   111   56  123 1    
   112   56  124 1    
   113   57   58 2    
   114   57   59 am   BACKBONE|DICT|INTERRES
   115   59   60 1    
   116   59  125 1    
   117   60   61 1    
   118   60   62 1    
   119   60  126 1    
   120   61  127 1    
   121   61  128 1    
   122   61  129 1    
   123   62   63 2    
   124   62   64 am   BACKBONE|DICT|INTERRES
   125   64   65 1    
   126   64  130 1    
   127   65   66 1    
   128   65   69 1    
   129   65  131 1    
   130   66   67 am   BACKBONE|DICT|INTERRES
   131   66   68 2    
   132   67  132 1    
   133   67  133 1    
   134   69   70 1    
   135   69  134 1    
   136   69  135 1    
   137   70   71 1    
   138   71  136 1    
   139   71  137 1    
@<TRIPOS>SUBSTRUCTURE
     1 UNK         1 GROUP             0       ****    0 ROOT    
