@<TRIPOS>MOLECULE
3R136
137   139    1
SMALL
USER_CHARGES


@<TRIPOS>ATOM
      1 CA         26.8565   21.8399    3.1971 C.3       0 UNK        -0.1979 
      2 C          27.2746   23.0876    2.4360 C.2       0 UNK         0.4864 
      3 O          26.7197   23.3703    1.3744 O.2       0 UNK        -0.5359 
      4 N          28.2345   23.8509    2.9759 N.am      1 UNK        -0.4318 
      5 CA         28.8236   25.0573    2.3728 C.3       1 UNK         0.0824 
      6 C6         29.9475   25.6584    3.2566 C.3       12 UNK        -0.0944 
      7 S7         31.1278   24.4282    3.9227 S.3       12 UNK        -0.2672 
      8 C8         31.9909   23.8229    2.4365 C.3       12 UNK         0.0333 
      9 C9         32.5963   24.9538    1.6202 C.ar      12 UNK        -0.0807 
     10 C10        33.6587   25.7058    2.1312 C.ar      12 UNK        -0.0894 
     11 C11        34.1868   26.7843    1.4063 C.ar      12 UNK        -0.0804 
     12 C12        33.6497   27.0782    0.1480 C.ar      12 UNK        -0.0824 
     13 C13        32.5934   26.3264   -0.3747 C.ar      12 UNK        -0.0762 
     14 C14        32.0739   25.2624    0.3630 C.ar      12 UNK        -0.0782 
     15 C15        31.9746   26.6931   -1.7114 C.3       12 UNK         0.0230 
     16 S16        30.7302   27.9876   -1.4606 S.3       12 UNK        -0.2608 
     17 C17        29.9324   28.0910   -3.0961 C.3       12 UNK        -0.0989 
     18 CA         28.3934   27.9232   -3.0292 C.3       5 UNK         0.0716 
     19 N          28.0162   26.6182   -2.4741 N.am      5 UNK        -0.4135 
     20 C          26.9676   25.8908   -2.8815 C.2       4 UNK         0.5031 
     21 O          26.1998   26.2463   -3.7784 O.2       4 UNK        -0.5229 
     22 CA         26.7584   24.5257   -2.1977 C.3       4 UNK         0.0329 
     23 CB         28.0768   23.8737   -1.7320 C.3       4 UNK        -0.2001 
     24 N          25.8452   24.6114   -1.0583 N.am      4 UNK        -0.4303 
     25 C          24.5271   24.8558   -1.1121 C.2       3 UNK         0.5044 
     26 O          23.8928   25.0215   -2.1541 O.2       3 UNK        -0.5152 
     27 CA         23.7763   24.9033    0.2281 C.3       3 UNK         0.0319 
     28 CB         23.2971   23.4978    0.6281 C.3       3 UNK        -0.2001 
     29 N          24.6102   25.4535    1.2983 N.am      3 UNK        -0.4354 
     30 C          24.6464   26.7490    1.6410 C.2       2 UNK         0.4964 
     31 O          23.9390   27.6120    1.1216 O.2       2 UNK        -0.5047 
     32 CA         25.6225   27.1638    2.7585 C.3       2 UNK         0.0288 
     33 CB         24.8856   27.2515    4.1046 C.3       2 UNK        -0.2113 
     34 N          26.7672   26.2665    2.9018 N.am      2 UNK        -0.4145 
     35 C          27.7756   26.1387    2.0263 C.2       1 UNK         0.5006 
     36 O          27.8722   26.7855    0.9785 O.2       1 UNK        -0.5103 
     37 C          27.7191   29.1009   -2.2893 C.2       5 UNK         0.5055 
     38 O          27.8113   30.2305   -2.7727 O.2       5 UNK        -0.5220 
     39 N          27.0727   28.8246   -1.1450 N.am      6 UNK        -0.4450 
     40 CA         26.4652   29.7792   -0.2125 C.3       6 UNK         0.0367 
     41 CB         25.3784   30.6471   -0.8841 C.3       6 UNK        -0.1929 
     42 C          27.5249   30.5883    0.5573 C.2       6 UNK         0.5070 
     43 O          27.4004   31.8077    0.6840 O.2       6 UNK        -0.5237 
     44 N          28.5439   29.8862    1.0677 N.am      7 UNK        -0.4739 
     45 CA         29.5933   30.4336    1.9297 C.3       7 UNK         0.0276 
     46 CB         30.9665   30.0135    1.3792 C.3       7 UNK        -0.1927 
     47 C          29.4294   29.9039    3.3596 C.2       7 UNK         0.5013 
     48 O          28.7745   28.8810    3.5713 O.2       7 UNK        -0.5193 
     49 N          30.0674   30.5886    4.3158 N.am      8 UNK        -0.4253 
     50 CA         30.2355   30.1032    5.6846 C.3       8 UNK         0.0242 
     51 CB         30.5715   31.2868    6.6070 C.3       8 UNK        -0.2000 
     52 C          31.3592   29.0575    5.7252 C.2       8 UNK         0.4948 
     53 O          32.3856   29.2499    5.0694 O.2       8 UNK        -0.5275 
     54 N          31.1767   28.0069    6.5359 N.am      9 UNK        -0.4246 
     55 CA         32.1068   26.8773    6.6786 C.3       9 UNK         0.0261 
     56 CB         31.4404   25.7823    7.5277 C.3       9 UNK        -0.1959 
     57 C          33.4968   27.2353    7.2414 C.2       9 UNK         0.5033 
     58 O          34.4199   26.4293    7.1187 O.2       9 UNK        -0.5390 
     59 N          33.6315   28.4301    7.8331 N.am      10 UNK        -0.4215 
     60 CA         34.9062   29.0238    8.2396 C.3       10 UNK         0.0240 
     61 CB         34.6290   30.2136    9.1735 C.3       10 UNK        -0.1982 
     62 C          35.7795   29.4677    7.0485 C.2       10 UNK         0.4970 
     63 O          36.9941   29.5792    7.2191 O.2       10 UNK        -0.4916 
     64 N          35.1591   29.7208    5.8847 N.am      11 UNK        -0.4279 
     65 CA         35.8002   30.1257    4.6203 C.3       11 UNK         0.1003 
     66 C          36.5137   31.5125    4.6556 C.2       11 UNK         0.5709 
     67 N          36.2092   32.3866    5.6078 N.am      11 UNK        -0.7358 
     68 O          37.3296   31.8214    3.7898 O.2       11 UNK        -0.4999 
     69 C69        36.6806   28.9995    4.0025 C.3       12 UNK        -0.0954 
     70 S70        35.7273   27.4740    3.7001 S.3       12 UNK        -0.2268 
     71 C71        35.3160   27.6745    1.9320 C.3       12 UNK         0.0203 
     72 H72        27.0252   20.9554    2.5837 H         1 UNK         0.0888 
     73 H73        27.4150   21.7219    4.1255 H         1 UNK         0.0888 
     74 H74        25.7957   21.8883    3.4411 H         1 UNK         0.0888 
     75 H75        28.6650   23.5618    3.8436 H         1 UNK         0.3017 
     76 H76        29.2690   24.7436    1.4283 H         1 UNK         0.0873 
     77 H77        29.5180   26.1734    4.1185 H         1 UNK         0.0745 
     78 H78        30.4993   26.4237    2.7070 H         1 UNK         0.0745 
     79 H79        31.2947   23.2349    1.8364 H         1 UNK         0.0705 
     80 H80        32.7824   23.1378    2.7432 H         1 UNK         0.0705 
     81 H81        34.0451   25.4529    3.1080 H         1 UNK         0.1334 
     82 H82        34.0377   27.9134   -0.4194 H         1 UNK         0.1417 
     83 H83        31.2480   24.6894   -0.0353 H         1 UNK         0.1562 
     84 H84        31.5129   25.8178   -2.1714 H         1 UNK         0.0748 
     85 H85        32.7406   27.0471   -2.4031 H         1 UNK         0.0748 
     86 H86        30.3526   27.3327   -3.7585 H         1 UNK         0.0940 
     87 H87        30.1955   29.0492   -3.5487 H         1 UNK         0.0940 
     88 H88        28.0326   27.9780   -4.0587 H         1 UNK         0.0703 
     89 H89        28.5966   26.2735   -1.7214 H         1 UNK         0.3081 
     90 H90        26.3073   23.8643   -2.9403 H         1 UNK         0.0719 
     91 H91        27.9060   22.8505   -1.3961 H         1 UNK         0.0809 
     92 H92        28.8037   23.8263   -2.5442 H         1 UNK         0.0809 
     93 H93        28.5353   24.4133   -0.9032 H         1 UNK         0.0809 
     94 H94        26.2435   24.3899   -0.1495 H         1 UNK         0.2990 
     95 H95        22.8919   25.5298    0.0924 H         1 UNK         0.0690 
     96 H96        22.6491   23.0745   -0.1406 H         1 UNK         0.0788 
     97 H97        22.7248   23.5239    1.5555 H         1 UNK         0.0788 
     98 H98        24.1300   22.8075    0.7675 H         1 UNK         0.0788 
     99 H99        25.2626   24.8106    1.7310 H         1 UNK         0.2993 
    100 H100       26.0097   28.1562    2.5246 H         1 UNK         0.0949 
    101 H101       24.4927   26.2824    4.4154 H         1 UNK         0.0767 
    102 H102       25.5440   27.6178    4.8928 H         1 UNK         0.0767 
    103 H103       24.0424   27.9412    4.0434 H         1 UNK         0.0767 
    104 H104       26.7848   25.6861    3.7274 H         1 UNK         0.3013 
    105 H105       27.1219   27.8722   -0.8036 H         1 UNK         0.3121 
    106 H106       25.9579   29.1765    0.5349 H         1 UNK         0.0774 
    107 H107       25.7993   31.3600   -1.5930 H         1 UNK         0.0815 
    108 H108       24.8307   31.2234   -0.1377 H         1 UNK         0.0815 
    109 H109       24.6515   30.0314   -1.4135 H         1 UNK         0.0815 
    110 H110       28.5289   28.8757    0.9820 H         1 UNK         0.2987 
    111 H111       29.5419   31.5242    1.9558 H         1 UNK         0.0949 
    112 H112       31.0836   28.9286    1.3729 H         1 UNK         0.0806 
    113 H113       31.1115   30.3749    0.3613 H         1 UNK         0.0806 
    114 H114       31.7783   30.4200    1.9837 H         1 UNK         0.0806 
    115 H115       30.6246   31.3884    4.0533 H         1 UNK         0.3010 
    116 H116       29.3008   29.6487    6.0213 H         1 UNK         0.0829 
    117 H117       29.7866   32.0430    6.5821 H         1 UNK         0.0813 
    118 H118       30.6710   30.9603    7.6429 H         1 UNK         0.0813 
    119 H119       31.5092   31.7679    6.3250 H         1 UNK         0.0813 
    120 H120       30.3140   27.9422    7.0577 H         1 UNK         0.3038 
    121 H121       32.2794   26.4771    5.6779 H         1 UNK         0.0769 
    122 H122       31.2174   26.1320    8.5363 H         1 UNK         0.0811 
    123 H123       32.0900   24.9106    7.6200 H         1 UNK         0.0811 
    124 H124       30.5105   25.4395    7.0734 H         1 UNK         0.0811 
    125 H125       32.8111   29.0122    7.9096 H         1 UNK         0.3204 
    126 H126       35.4701   28.2732    8.7976 H         1 UNK         0.0748 
    127 H127       35.5608   30.6659    9.5164 H         1 UNK         0.0771 
    128 H128       34.0517   30.9940    8.6760 H         1 UNK         0.0771 
    129 H129       34.0781   29.9016   10.0610 H         1 UNK         0.0771 
    130 H130       34.1568   29.5727    5.8139 H         1 UNK         0.2980 
    131 H131       34.9697   30.2844    3.9316 H         1 UNK         0.0545 
    132 H132       35.5346   32.1538    6.3178 H         1 UNK         0.3459 
    133 H133       36.6659   33.2849    5.6173 H         1 UNK         0.3459 
    134 H134       37.1250   29.3203    3.0588 H         1 UNK         0.0616 
    135 H135       37.5164   28.7602    4.6613 H         1 UNK         0.0616 
    136 H136       36.2155   27.4914    1.3422 H         1 UNK         0.0634 
    137 H137       35.0372   28.7167    1.7652 H         1 UNK         0.0634 
@<TRIPOS>BOND
     1    1    2 1    
     2    1   72 1    
     3    1   73 1    
     4    1   74 1    
     5    2    3 2    
     6    2    4 am   BACKBONE|DICT|INTERRES
     7    4    5 1    
     8    4   75 1    
     9    5    6 1    
    10    5   35 1    
    11    5   76 1    
    12    6    7 1    
    13    6   77 1    
    14    6   78 1    
    15    7    8 1    
    16    8    9 1    
    17    8   79 1    
    18    8   80 1    
    19    9   10 ar   
    20    9   14 ar   
    21   10   11 ar   
    22   10   81 1    
    23   11   12 ar   
    24   11   71 1    
    25   12   13 ar   
    26   12   82 1    
    27   13   14 ar   
    28   13   15 1    
    29   14   83 1    
    30   15   16 1    
    31   15   84 1    
    32   15   85 1    
    33   16   17 1    
    34   17   18 1    
    35   17   86 1    
    36   17   87 1    
    37   18   19 1    
    38   18   37 1    
    39   18   88 1    
    40   19   20 am   BACKBONE|DICT|INTERRES
    41   19   89 1    
    42   20   21 2    
    43   20   22 1    
    44   22   23 1    
    45   22   24 1    
    46   22   90 1    
    47   23   91 1    
    48   23   92 1    
    49   23   93 1    
    50   24   25 am   BACKBONE|DICT|INTERRES
    51   24   94 1    
    52   25   26 2    
    53   25   27 1    
    54   27   28 1    
    55   27   29 1    
    56   27   95 1    
    57   28   96 1    
    58   28   97 1    
    59   28   98 1    
    60   29   30 am   BACKBONE|DICT|INTERRES
    61   29   99 1    
    62   30   31 2    
    63   30   32 1    
    64   32   33 1    
    65   32   34 1    
    66   32  100 1    
    67   33  101 1    
    68   33  102 1    
    69   33  103 1    
    70   34   35 am   BACKBONE|DICT|INTERRES
    71   34  104 1    
    72   35   36 2    
    73   37   38 2    
    74   37   39 am   BACKBONE|DICT|INTERRES
    75   39   40 1    
    76   39  105 1    
    77   40   41 1    
    78   40   42 1    
    79   40  106 1    
    80   41  107 1    
    81   41  108 1    
    82   41  109 1    
    83   42   43 2    
    84   42   44 am   BACKBONE|DICT|INTERRES
    85   44   45 1    
    86   44  110 1    
    87   45   46 1    
    88   45   47 1    
    89   45  111 1    
    90   46  112 1    
    91   46  113 1    
    92   46  114 1    
    93   47   48 2    
    94   47   49 am   BACKBONE|DICT|INTERRES
    95   49   50 1    
    96   49  115 1    
    97   50   51 1    
    98   50   52 1    
    99   50  116 1    
   100   51  117 1    
   101   51  118 1    
   102   51  119 1    
   103   52   53 2    
   104   52   54 am   BACKBONE|DICT|INTERRES
   105   54   55 1    
   106   54  120 1    
   107   55   56 1    
   108   55   57 1    
   109   55  121 1    
   110   56  122 1    
   111   56  123 1    
   112   56  124 1    
   113   57   58 2    
   114   57   59 am   BACKBONE|DICT|INTERRES
   115   59   60 1    
   116   59  125 1    
   117   60   61 1    
   118   60   62 1    
   119   60  126 1    
   120   61  127 1    
   121   61  128 1    
   122   61  129 1    
   123   62   63 2    
   124   62   64 am   BACKBONE|DICT|INTERRES
   125   64   65 1    
   126   64  130 1    
   127   65   66 1    
   128   65   69 1    
   129   65  131 1    
   130   66   67 am   BACKBONE|DICT|INTERRES
   131   66   68 2    
   132   67  132 1    
   133   67  133 1    
   134   69   70 1    
   135   69  134 1    
   136   69  135 1    
   137   70   71 1    
   138   71  136 1    
   139   71  137 1    
@<TRIPOS>SUBSTRUCTURE
     1 UNK         1 GROUP             0       ****    0 ROOT    
