@<TRIPOS>MOLECULE
3R136
137   139    1
SMALL
USER_CHARGES


@<TRIPOS>ATOM
      1 CA         29.3055   21.3721   -2.4962 C.3       0 UNK        -0.1979 
      2 C          29.2549   21.5956   -0.9914 C.2       0 UNK         0.4864 
      3 O          28.6917   20.7644   -0.2777 O.2       0 UNK        -0.5359 
      4 N          29.8435   22.7083   -0.5267 N.am      1 UNK        -0.4318 
      5 CA         29.8964   23.1933    0.8613 C.3       1 UNK         0.0824 
      6 C6         30.5619   22.1935    1.8536 C.3       12 UNK        -0.0944 
      7 S7         32.3454   22.0089    1.5206 S.3       12 UNK        -0.2672 
      8 C8         33.0759   22.9920    2.8749 C.3       12 UNK         0.0333 
      9 C9         32.5370   24.4173    2.9180 C.ar      12 UNK        -0.0807 
     10 C10        31.8383   24.8770    4.0390 C.ar      12 UNK        -0.0894 
     11 C11        31.3424   26.1841    4.0804 C.ar      12 UNK        -0.0804 
     12 C12        31.5088   27.0179    2.9698 C.ar      12 UNK        -0.0824 
     13 C13        32.1957   26.5642    1.8409 C.ar      12 UNK        -0.0762 
     14 C14        32.7280   25.2729    1.8301 C.ar      12 UNK        -0.0782 
     15 C15        32.3680   27.4608    0.6273 C.3       12 UNK         0.0230 
     16 S16        31.0101   27.2220   -0.5594 S.3       12 UNK        -0.2608 
     17 C17        29.7480   28.3427    0.1274 C.3       12 UNK        -0.0989 
     18 CA         28.5485   28.5103   -0.8355 C.3       5 UNK         0.0716 
     19 N          27.7807   27.2726   -0.9879 N.am      5 UNK        -0.4135 
     20 C          27.1045   26.9256   -2.0914 C.2       4 UNK         0.5031 
     21 O          27.1400   27.5566   -3.1486 O.2       4 UNK        -0.5229 
     22 CA         26.2230   25.6660   -1.9995 C.3       4 UNK         0.0329 
     23 CB         27.0235   24.4198   -2.4057 C.3       4 UNK        -0.2001 
     24 N          25.6500   25.4780   -0.6621 N.am      4 UNK        -0.4303 
     25 C          24.6936   26.2687   -0.1479 C.2       3 UNK         0.5044 
     26 O          24.1344   27.1598   -0.7876 O.2       3 UNK        -0.5152 
     27 CA         24.2972   26.0660    1.3276 C.3       3 UNK         0.0319 
     28 CB         22.9836   25.2738    1.4246 C.3       3 UNK        -0.2001 
     29 N          25.3110   25.4119    2.1599 N.am      3 UNK        -0.4354 
     30 C          26.5566   25.8538    2.3800 C.2       2 UNK         0.4964 
     31 O          27.0180   26.8780    1.8754 O.2       2 UNK        -0.5047 
     32 CA         27.4671   24.9870    3.2683 C.3       2 UNK         0.0288 
     33 CB         26.7288   23.8595    4.0254 C.3       2 UNK        -0.2113 
     34 N          28.5943   24.4295    2.5127 N.am      2 UNK        -0.4145 
     35 C          28.5360   23.7033    1.3839 C.2       1 UNK         0.5006 
     36 O          27.4876   23.4653    0.7766 O.2       1 UNK        -0.5103 
     37 C          27.6268   29.6484   -0.3616 C.2       5 UNK         0.5055 
     38 O          27.7601   30.7731   -0.8471 O.2       5 UNK        -0.5220 
     39 N          26.7204   29.3374    0.5790 N.am      6 UNK        -0.4450 
     40 CA         25.7441   30.2010    1.2568 C.3       6 UNK         0.0367 
     41 CB         24.7761   30.8733    0.2642 C.3       6 UNK        -0.1929 
     42 C          26.3932   31.2209    2.2076 C.2       6 UNK         0.5070 
     43 O          26.0096   31.2886    3.3757 O.2       6 UNK        -0.5237 
     44 N          27.3808   31.9699    1.7077 N.am      7 UNK        -0.4739 
     45 CA         28.2827   32.8017    2.4993 C.3       7 UNK         0.0276 
     46 CB         28.9356   33.8433    1.5766 C.3       7 UNK        -0.1927 
     47 C          29.3604   31.9297    3.1612 C.2       7 UNK         0.5013 
     48 O          29.7710   30.9157    2.5869 O.2       7 UNK        -0.5193 
     49 N          29.8491   32.3655    4.3288 N.am      8 UNK        -0.4253 
     50 CA         30.9175   31.7079    5.0874 C.3       8 UNK         0.0242 
     51 CB         30.8157   32.1203    6.5676 C.3       8 UNK        -0.2000 
     52 C          32.3088   31.9883    4.4838 C.2       8 UNK         0.4948 
     53 O          33.1743   32.5571    5.1508 O.2       8 UNK        -0.5275 
     54 N          32.4865   31.6066    3.2132 N.am      9 UNK        -0.4246 
     55 CA         33.6971   31.8354    2.4197 C.3       9 UNK         0.0261 
     56 CB         33.3370   31.7437    0.9271 C.3       9 UNK        -0.1959 
     57 C          34.8623   30.8880    2.7635 C.2       9 UNK         0.5033 
     58 O          35.9909   31.1600    2.3501 O.2       9 UNK        -0.5390 
     59 N          34.5835   29.8042    3.4967 N.am      10 UNK        -0.4215 
     60 CA         35.5609   28.8236    3.9569 C.3       10 UNK         0.0240 
     61 CB         35.7699   27.7321    2.8847 C.3       10 UNK        -0.1982 
     62 C          35.0944   28.2965    5.3186 C.2       10 UNK         0.4970 
     63 O          35.3234   28.9643    6.3272 O.2       10 UNK        -0.4916 
     64 N          34.4377   27.1302    5.3181 N.am      11 UNK        -0.4279 
     65 CA         33.8598   26.4498    6.4914 C.3       11 UNK         0.1003 
     66 C          34.9013   25.8789    7.5017 C.2       11 UNK         0.5709 
     67 N          36.1734   25.7556    7.1417 N.am      11 UNK        -0.7358 
     68 O          34.5492   25.5080    8.6193 O.2       11 UNK        -0.4999 
     69 C69        32.7235   27.2529    7.1956 C.3       12 UNK        -0.0954 
     70 S70        31.5245   28.0827    6.0940 S.3       12 UNK        -0.2268 
     71 C71        30.6243   26.7019    5.3194 C.3       12 UNK         0.0203 
     72 H72        28.2949   21.3163   -2.8999 H         1 UNK         0.0888 
     73 H73        29.8314   22.1752   -3.0124 H         1 UNK         0.0888 
     74 H74        29.8148   20.4350   -2.7196 H         1 UNK         0.0888 
     75 H75        30.2813   23.3266   -1.1945 H         1 UNK         0.3017 
     76 H76        30.5187   24.0861    0.8098 H         1 UNK         0.0873 
     77 H77        30.0942   21.2103    1.8029 H         1 UNK         0.0745 
     78 H78        30.4397   22.5083    2.8909 H         1 UNK         0.0745 
     79 H79        34.1586   23.0231    2.7460 H         1 UNK         0.0705 
     80 H80        32.8938   22.4784    3.8202 H         1 UNK         0.0705 
     81 H81        31.6938   24.2213    4.8873 H         1 UNK         0.1334 
     82 H82        31.1074   28.0226    2.9897 H         1 UNK         0.1417 
     83 H83        33.2621   24.9181    0.9586 H         1 UNK         0.1562 
     84 H84        33.3133   27.2352    0.1312 H         1 UNK         0.0748 
     85 H85        32.4284   28.5057    0.9310 H         1 UNK         0.0748 
     86 H86        30.2210   29.3092    0.3156 H         1 UNK         0.0940 
     87 H87        29.4220   27.9665    1.0989 H         1 UNK         0.0940 
     88 H88        28.9434   28.8060   -1.8103 H         1 UNK         0.0703 
     89 H89        27.6611   26.7188   -0.1498 H         1 UNK         0.3081 
     90 H90        25.3991   25.7828   -2.7069 H         1 UNK         0.0719 
     91 H91        27.3652   24.4967   -3.4387 H         1 UNK         0.0809 
     92 H92        27.9068   24.2936   -1.7815 H         1 UNK         0.0809 
     93 H93        26.4226   23.5135   -2.3273 H         1 UNK         0.0809 
     94 H94        26.0664   24.7584   -0.0789 H         1 UNK         0.2990 
     95 H95        24.1274   27.0589    1.7491 H         1 UNK         0.0690 
     96 H96        22.6298   25.2139    2.4541 H         1 UNK         0.0788 
     97 H97        23.0977   24.2567    1.0472 H         1 UNK         0.0788 
     98 H98        22.1946   25.7512    0.8414 H         1 UNK         0.0788 
     99 H99        25.0432   24.5371    2.5876 H         1 UNK         0.2993 
    100 H100       27.8893   25.6638    4.0118 H         1 UNK         0.0949 
    101 H101       25.9120   24.2556    4.6307 H         1 UNK         0.0767 
    102 H102       26.3153   23.1084    3.3511 H         1 UNK         0.0767 
    103 H103       27.4056   23.3448    4.7078 H         1 UNK         0.0767 
    104 H104       29.5079   24.6341    2.8946 H         1 UNK         0.3013 
    105 H105       26.7771   28.3989    0.9726 H         1 UNK         0.3121 
    106 H106       25.1514   29.5286    1.8792 H         1 UNK         0.0774 
    107 H107       24.2837   30.1335   -0.3673 H         1 UNK         0.0815 
    108 H108       23.9954   31.4188    0.7954 H         1 UNK         0.0815 
    109 H109       25.2818   31.5868   -0.3865 H         1 UNK         0.0815 
    110 H110       27.6517   31.7859    0.7450 H         1 UNK         0.2987 
    111 H111       27.7092   33.3173    3.2730 H         1 UNK         0.0949 
    112 H112       28.1863   34.4765    1.1012 H         1 UNK         0.0806 
    113 H113       29.6055   34.4985    2.1352 H         1 UNK         0.0806 
    114 H114       29.5238   33.3710    0.7882 H         1 UNK         0.0806 
    115 H115       29.4951   33.2304    4.7124 H         1 UNK         0.3010 
    116 H116       30.7568   30.6305    5.0345 H         1 UNK         0.0829 
    117 H117       31.5725   31.6105    7.1657 H         1 UNK         0.0813 
    118 H118       30.9605   33.1930    6.7011 H         1 UNK         0.0813 
    119 H119       29.8447   31.8561    6.9869 H         1 UNK         0.0813 
    120 H120       31.6903   31.1850    2.7414 H         1 UNK         0.3038 
    121 H121       34.0453   32.8513    2.6186 H         1 UNK         0.0769 
    122 H122       34.2085   31.9410    0.3013 H         1 UNK         0.0811 
    123 H123       32.5754   32.4759    0.6579 H         1 UNK         0.0811 
    124 H124       32.9609   30.7571    0.6591 H         1 UNK         0.0811 
    125 H125       33.6404   29.6861    3.8393 H         1 UNK         0.3204 
    126 H126       36.5189   29.3190    4.1302 H         1 UNK         0.0748 
    127 H127       36.4434   26.9515    3.2410 H         1 UNK         0.0771 
    128 H128       34.8349   27.2587    2.5887 H         1 UNK         0.0771 
    129 H129       36.2188   28.1534    1.9850 H         1 UNK         0.0771 
    130 H130       34.2939   26.6609    4.4361 H         1 UNK         0.2980 
    131 H131       33.3983   25.5514    6.0892 H         1 UNK         0.0545 
    132 H132       36.4769   26.0427    6.2256 H         1 UNK         0.3459 
    133 H133       36.8366   25.3748    7.7981 H         1 UNK         0.3459 
    134 H134       32.1640   26.6013    7.8689 H         1 UNK         0.0616 
    135 H135       33.1587   28.0290    7.8273 H         1 UNK         0.0616 
    136 H136       30.4653   25.9089    6.0516 H         1 UNK         0.0634 
    137 H137       29.6356   27.0583    5.0284 H         1 UNK         0.0634 
@<TRIPOS>BOND
     1    1    2 1    
     2    1   72 1    
     3    1   73 1    
     4    1   74 1    
     5    2    3 2    
     6    2    4 am   BACKBONE|DICT|INTERRES
     7    4    5 1    
     8    4   75 1    
     9    5    6 1    
    10    5   35 1    
    11    5   76 1    
    12    6    7 1    
    13    6   77 1    
    14    6   78 1    
    15    7    8 1    
    16    8    9 1    
    17    8   79 1    
    18    8   80 1    
    19    9   10 ar   
    20    9   14 ar   
    21   10   11 ar   
    22   10   81 1    
    23   11   12 ar   
    24   11   71 1    
    25   12   13 ar   
    26   12   82 1    
    27   13   14 ar   
    28   13   15 1    
    29   14   83 1    
    30   15   16 1    
    31   15   84 1    
    32   15   85 1    
    33   16   17 1    
    34   17   18 1    
    35   17   86 1    
    36   17   87 1    
    37   18   19 1    
    38   18   37 1    
    39   18   88 1    
    40   19   20 am   BACKBONE|DICT|INTERRES
    41   19   89 1    
    42   20   21 2    
    43   20   22 1    
    44   22   23 1    
    45   22   24 1    
    46   22   90 1    
    47   23   91 1    
    48   23   92 1    
    49   23   93 1    
    50   24   25 am   BACKBONE|DICT|INTERRES
    51   24   94 1    
    52   25   26 2    
    53   25   27 1    
    54   27   28 1    
    55   27   29 1    
    56   27   95 1    
    57   28   96 1    
    58   28   97 1    
    59   28   98 1    
    60   29   30 am   BACKBONE|DICT|INTERRES
    61   29   99 1    
    62   30   31 2    
    63   30   32 1    
    64   32   33 1    
    65   32   34 1    
    66   32  100 1    
    67   33  101 1    
    68   33  102 1    
    69   33  103 1    
    70   34   35 am   BACKBONE|DICT|INTERRES
    71   34  104 1    
    72   35   36 2    
    73   37   38 2    
    74   37   39 am   BACKBONE|DICT|INTERRES
    75   39   40 1    
    76   39  105 1    
    77   40   41 1    
    78   40   42 1    
    79   40  106 1    
    80   41  107 1    
    81   41  108 1    
    82   41  109 1    
    83   42   43 2    
    84   42   44 am   BACKBONE|DICT|INTERRES
    85   44   45 1    
    86   44  110 1    
    87   45   46 1    
    88   45   47 1    
    89   45  111 1    
    90   46  112 1    
    91   46  113 1    
    92   46  114 1    
    93   47   48 2    
    94   47   49 am   BACKBONE|DICT|INTERRES
    95   49   50 1    
    96   49  115 1    
    97   50   51 1    
    98   50   52 1    
    99   50  116 1    
   100   51  117 1    
   101   51  118 1    
   102   51  119 1    
   103   52   53 2    
   104   52   54 am   BACKBONE|DICT|INTERRES
   105   54   55 1    
   106   54  120 1    
   107   55   56 1    
   108   55   57 1    
   109   55  121 1    
   110   56  122 1    
   111   56  123 1    
   112   56  124 1    
   113   57   58 2    
   114   57   59 am   BACKBONE|DICT|INTERRES
   115   59   60 1    
   116   59  125 1    
   117   60   61 1    
   118   60   62 1    
   119   60  126 1    
   120   61  127 1    
   121   61  128 1    
   122   61  129 1    
   123   62   63 2    
   124   62   64 am   BACKBONE|DICT|INTERRES
   125   64   65 1    
   126   64  130 1    
   127   65   66 1    
   128   65   69 1    
   129   65  131 1    
   130   66   67 am   BACKBONE|DICT|INTERRES
   131   66   68 2    
   132   67  132 1    
   133   67  133 1    
   134   69   70 1    
   135   69  134 1    
   136   69  135 1    
   137   70   71 1    
   138   71  136 1    
   139   71  137 1    
@<TRIPOS>SUBSTRUCTURE
     1 UNK         1 GROUP             0       ****    0 ROOT    
