@<TRIPOS>MOLECULE
3R136
137   139    1
SMALL
USER_CHARGES


@<TRIPOS>ATOM
      1 CA         27.6896   21.3764   -0.3771 C.3       0 UNK        -0.1979 
      2 C          27.9429   21.9802    0.9970 C.2       0 UNK         0.4864 
      3 O          27.3691   21.5105    1.9803 O.2       0 UNK        -0.5359 
      4 N          28.8032   23.0065    1.0532 N.am      1 UNK        -0.4318 
      5 CA         29.1829   23.8020    2.2271 C.3       1 UNK         0.0824 
      6 C6         29.6133   22.9426    3.4498 C.3       12 UNK        -0.0944 
      7 S7         30.8528   23.7425    4.5246 S.3       12 UNK        -0.2672 
      8 C8         32.4190   23.2350    3.7385 C.3       12 UNK         0.0333 
      9 C9         32.7491   24.1464    2.5675 C.ar      12 UNK        -0.0807 
     10 C10        33.2852   25.4114    2.8120 C.ar      12 UNK        -0.0894 
     11 C11        33.5179   26.3032    1.7627 C.ar      12 UNK        -0.0804 
     12 C12        33.2012   25.9231    0.4553 C.ar      12 UNK        -0.0824 
     13 C13        32.6570   24.6595    0.1986 C.ar      12 UNK        -0.0762 
     14 C14        32.4681   23.7607    1.2535 C.ar      12 UNK        -0.0782 
     15 C15        32.2188   24.2811   -1.2083 C.3       12 UNK         0.0230 
     16 S16        30.4185   24.4942   -1.4162 S.3       12 UNK        -0.2608 
     17 C17        30.2481   26.3073   -1.2965 C.3       12 UNK        -0.0989 
     18 CA         29.0072   26.8339   -2.0641 C.3       5 UNK         0.0716 
     19 N          27.7578   26.3981   -1.4290 N.am      5 UNK        -0.4135 
     20 C          26.7124   25.8566   -2.0691 C.2       4 UNK         0.5031 
     21 O          26.7192   25.5556   -3.2630 O.2       4 UNK        -0.5229 
     22 CA         25.4188   25.6441   -1.2569 C.3       4 UNK         0.0329 
     23 CB         25.2965   24.1848   -0.7969 C.3       4 UNK        -0.2001 
     24 N          25.2958   26.5365   -0.0983 N.am      4 UNK        -0.4303 
     25 C          25.1206   27.8638   -0.1880 C.2       3 UNK         0.5044 
     26 O          25.0164   28.4610   -1.2587 O.2       3 UNK        -0.5152 
     27 CA         25.1276   28.6828    1.1156 C.3       3 UNK         0.0319 
     28 CB         23.6913   28.9122    1.6109 C.3       3 UNK        -0.2001 
     29 N          25.9273   28.1085    2.2013 N.am      3 UNK        -0.4354 
     30 C          27.2291   27.7958    2.1393 C.2       2 UNK         0.4964 
     31 O          27.9109   27.9080    1.1165 O.2       2 UNK        -0.5047 
     32 CA         27.8825   27.2296    3.4156 C.3       2 UNK         0.0288 
     33 CB         26.9051   27.0077    4.5936 C.3       2 UNK        -0.2113 
     34 N          28.6248   25.9984    3.1292 N.am      2 UNK        -0.4145 
     35 C          28.1384   24.8843    2.5600 C.2       1 UNK         0.5006 
     36 O          26.9494   24.7250    2.2698 O.2       1 UNK        -0.5103 
     37 C          29.0499   28.3752   -2.1947 C.2       5 UNK         0.5055 
     38 O          30.0786   28.9063   -2.6160 O.2       5 UNK        -0.5220 
     39 N          27.9598   29.0696   -1.8217 N.am      6 UNK        -0.4450 
     40 CA         27.8188   30.5277   -1.7059 C.3       6 UNK         0.0367 
     41 CB         27.8574   31.1945   -3.0972 C.3       6 UNK        -0.1929 
     42 C          28.8145   31.1588   -0.7083 C.2       6 UNK         0.5070 
     43 O          29.2342   32.3016   -0.9008 O.2       6 UNK        -0.5237 
     44 N          29.1848   30.4030    0.3325 N.am      7 UNK        -0.4739 
     45 CA         30.1624   30.7912    1.3445 C.3       7 UNK         0.0276 
     46 CB         31.0502   29.5753    1.6511 C.3       7 UNK        -0.1927 
     47 C          29.4638   31.2680    2.6236 C.2       7 UNK         0.5013 
     48 O          28.3641   30.8066    2.9427 O.2       7 UNK        -0.5193 
     49 N          30.1440   32.1467    3.3698 N.am      8 UNK        -0.4253 
     50 CA         29.7350   32.6120    4.6957 C.3       8 UNK         0.0242 
     51 CB         30.4094   33.9671    4.9819 C.3       8 UNK        -0.2000 
     52 C          30.0736   31.5465    5.7541 C.2       8 UNK         0.4948 
     53 O          31.0448   31.7041    6.4964 O.2       8 UNK        -0.5275 
     54 N          29.2809   30.4657    5.7623 N.am      9 UNK        -0.4246 
     55 CA         29.4671   29.2347    6.5387 C.3       9 UNK         0.0261 
     56 CB         29.3880   29.5064    8.0594 C.3       9 UNK        -0.1959 
     57 C          30.7324   28.4761    6.0867 C.2       9 UNK         0.5033 
     58 O          31.0262   28.4566    4.8890 O.2       9 UNK        -0.5390 
     59 N          31.4397   27.8356    7.0255 N.am      10 UNK        -0.4215 
     60 CA         32.6956   27.1356    6.7648 C.3       10 UNK         0.0240 
     61 CB         32.9678   26.1276    7.8936 C.3       10 UNK        -0.1982 
     62 C          33.8482   28.1436    6.6303 C.2       10 UNK         0.4970 
     63 O          34.0919   28.9137    7.5614 O.2       10 UNK        -0.4916 
     64 N          34.5368   28.1052    5.4859 N.am      11 UNK        -0.4279 
     65 CA         35.7110   28.9325    5.1656 C.3       11 UNK         0.1003 
     66 C          37.0484   28.4360    5.7912 C.2       11 UNK         0.5709 
     67 N          37.0979   27.2712    6.4276 N.am      11 UNK        -0.7358 
     68 O          38.0581   29.1321    5.7134 O.2       11 UNK        -0.4999 
     69 C69        35.8283   29.1828    3.6350 C.3       12 UNK        -0.0954 
     70 S70        35.7763   27.6549    2.6319 S.3       12 UNK        -0.2268 
     71 C71        34.0478   27.6952    2.0638 C.3       12 UNK         0.0203 
     72 H72        26.6188   21.3129   -0.5685 H         1 UNK         0.0888 
     73 H73        28.1395   21.9702   -1.1731 H         1 UNK         0.0888 
     74 H74        28.1044   20.3700   -0.4264 H         1 UNK         0.0888 
     75 H75        29.2114   23.3363    0.1868 H         1 UNK         0.3017 
     76 H76        30.0478   24.3613    1.8801 H         1 UNK         0.0873 
     77 H77        30.0336   21.9935    3.1141 H         1 UNK         0.0745 
     78 H78        28.7470   22.6744    4.0574 H         1 UNK         0.0745 
     79 H79        32.3689   22.1913    3.4247 H         1 UNK         0.0705 
     80 H80        33.2183   23.2919    4.4789 H         1 UNK         0.0705 
     81 H81        33.4984   25.7084    3.8276 H         1 UNK         0.1334 
     82 H82        33.3487   26.6209   -0.3576 H         1 UNK         0.1417 
     83 H83        32.0364   22.7881    1.0588 H         1 UNK         0.1562 
     84 H84        32.4779   23.2398   -1.4055 H         1 UNK         0.0748 
     85 H85        32.7497   24.8738   -1.9550 H         1 UNK         0.0748 
     86 H86        31.1614   26.7514   -1.6968 H         1 UNK         0.0940 
     87 H87        30.2063   26.5943   -0.2435 H         1 UNK         0.0940 
     88 H88        29.0604   26.4501   -3.0850 H         1 UNK         0.0703 
     89 H89        27.6642   26.6403   -0.4478 H         1 UNK         0.3081 
     90 H90        24.5823   25.8538   -1.9273 H         1 UNK         0.0719 
     91 H91        25.3689   23.4992   -1.6423 H         1 UNK         0.0809 
     92 H92        26.0850   23.9228   -0.0941 H         1 UNK         0.0809 
     93 H93        24.3389   23.9997   -0.3102 H         1 UNK         0.0809 
     94 H94        25.4128   26.1198    0.8166 H         1 UNK         0.2990 
     95 H95        25.5655   29.6552    0.8804 H         1 UNK         0.0690 
     96 H96        23.6690   29.5852    2.4683 H         1 UNK         0.0788 
     97 H97        23.2108   27.9775    1.9032 H         1 UNK         0.0788 
     98 H98        23.0765   29.3651    0.8314 H         1 UNK         0.0788 
     99 H99        25.4497   27.9578    3.0781 H         1 UNK         0.2993 
    100 H100       28.6192   27.9726    3.7226 H         1 UNK         0.0949 
    101 H101       26.4478   27.9449    4.9136 H         1 UNK         0.0767 
    102 H102       26.1046   26.3114    4.3400 H         1 UNK         0.0767 
    103 H103       27.4262   26.5975    5.4587 H         1 UNK         0.0767 
    104 H104       29.6163   26.0382    3.3239 H         1 UNK         0.3013 
    105 H105       27.1409   28.5465   -1.5382 H         1 UNK         0.3121 
    106 H106       26.8270   30.7027   -1.2868 H         1 UNK         0.0774 
    107 H107       27.1356   30.7391   -3.7751 H         1 UNK         0.0815 
    108 H108       27.6117   32.2550   -3.0300 H         1 UNK         0.0815 
    109 H109       28.8439   31.1188   -3.5555 H         1 UNK         0.0815 
    110 H110       28.7332   29.5036    0.4770 H         1 UNK         0.2987 
    111 H111       30.7958   31.5963    0.9651 H         1 UNK         0.0949 
    112 H112       31.5694   29.2278    0.7578 H         1 UNK         0.0806 
    113 H113       31.8067   29.8264    2.3951 H         1 UNK         0.0806 
    114 H114       30.4726   28.7392    2.0477 H         1 UNK         0.0806 
    115 H115       31.0571   32.4438    3.0571 H         1 UNK         0.3010 
    116 H116       28.6538   32.7686    4.7071 H         1 UNK         0.0829 
    117 H117       30.1278   34.3408    5.9674 H         1 UNK         0.0813 
    118 H118       31.4976   33.8938    4.9602 H         1 UNK         0.0813 
    119 H119       30.1098   34.7206    4.2532 H         1 UNK         0.0813 
    120 H120       28.5829   30.4191    5.0279 H         1 UNK         0.3038 
    121 H121       28.6258   28.5916    6.2832 H         1 UNK         0.0769 
    122 H122       29.3138   28.5776    8.6261 H         1 UNK         0.0811 
    123 H123       28.5041   30.0948    8.3057 H         1 UNK         0.0811 
    124 H124       30.2584   30.0517    8.4266 H         1 UNK         0.0811 
    125 H125       31.1626   27.9299    7.9915 H         1 UNK         0.3204 
    126 H126       32.5916   26.5731    5.8348 H         1 UNK         0.0748 
    127 H127       33.8930   25.5792    7.7121 H         1 UNK         0.0771 
    128 H128       33.0643   26.6184    8.8630 H         1 UNK         0.0771 
    129 H129       32.1666   25.3917    7.9677 H         1 UNK         0.0771 
    130 H130       34.2786   27.4413    4.7733 H         1 UNK         0.2980 
    131 H131       35.5445   29.9109    5.6204 H         1 UNK         0.0545 
    132 H132       36.2792   26.6908    6.5007 H         1 UNK         0.3459 
    133 H133       37.9698   26.9688    6.8325 H         1 UNK         0.3459 
    134 H134       35.0228   29.8453    3.3144 H         1 UNK         0.0616 
    135 H135       36.7476   29.7205    3.3962 H         1 UNK         0.0616 
    136 H136       33.4155   28.1399    2.8330 H         1 UNK         0.0634 
    137 H137       33.9759   28.3436    1.1893 H         1 UNK         0.0634 
@<TRIPOS>BOND
     1    1    2 1    
     2    1   72 1    
     3    1   73 1    
     4    1   74 1    
     5    2    3 2    
     6    2    4 am   BACKBONE|DICT|INTERRES
     7    4    5 1    
     8    4   75 1    
     9    5    6 1    
    10    5   35 1    
    11    5   76 1    
    12    6    7 1    
    13    6   77 1    
    14    6   78 1    
    15    7    8 1    
    16    8    9 1    
    17    8   79 1    
    18    8   80 1    
    19    9   10 ar   
    20    9   14 ar   
    21   10   11 ar   
    22   10   81 1    
    23   11   12 ar   
    24   11   71 1    
    25   12   13 ar   
    26   12   82 1    
    27   13   14 ar   
    28   13   15 1    
    29   14   83 1    
    30   15   16 1    
    31   15   84 1    
    32   15   85 1    
    33   16   17 1    
    34   17   18 1    
    35   17   86 1    
    36   17   87 1    
    37   18   19 1    
    38   18   37 1    
    39   18   88 1    
    40   19   20 am   BACKBONE|DICT|INTERRES
    41   19   89 1    
    42   20   21 2    
    43   20   22 1    
    44   22   23 1    
    45   22   24 1    
    46   22   90 1    
    47   23   91 1    
    48   23   92 1    
    49   23   93 1    
    50   24   25 am   BACKBONE|DICT|INTERRES
    51   24   94 1    
    52   25   26 2    
    53   25   27 1    
    54   27   28 1    
    55   27   29 1    
    56   27   95 1    
    57   28   96 1    
    58   28   97 1    
    59   28   98 1    
    60   29   30 am   BACKBONE|DICT|INTERRES
    61   29   99 1    
    62   30   31 2    
    63   30   32 1    
    64   32   33 1    
    65   32   34 1    
    66   32  100 1    
    67   33  101 1    
    68   33  102 1    
    69   33  103 1    
    70   34   35 am   BACKBONE|DICT|INTERRES
    71   34  104 1    
    72   35   36 2    
    73   37   38 2    
    74   37   39 am   BACKBONE|DICT|INTERRES
    75   39   40 1    
    76   39  105 1    
    77   40   41 1    
    78   40   42 1    
    79   40  106 1    
    80   41  107 1    
    81   41  108 1    
    82   41  109 1    
    83   42   43 2    
    84   42   44 am   BACKBONE|DICT|INTERRES
    85   44   45 1    
    86   44  110 1    
    87   45   46 1    
    88   45   47 1    
    89   45  111 1    
    90   46  112 1    
    91   46  113 1    
    92   46  114 1    
    93   47   48 2    
    94   47   49 am   BACKBONE|DICT|INTERRES
    95   49   50 1    
    96   49  115 1    
    97   50   51 1    
    98   50   52 1    
    99   50  116 1    
   100   51  117 1    
   101   51  118 1    
   102   51  119 1    
   103   52   53 2    
   104   52   54 am   BACKBONE|DICT|INTERRES
   105   54   55 1    
   106   54  120 1    
   107   55   56 1    
   108   55   57 1    
   109   55  121 1    
   110   56  122 1    
   111   56  123 1    
   112   56  124 1    
   113   57   58 2    
   114   57   59 am   BACKBONE|DICT|INTERRES
   115   59   60 1    
   116   59  125 1    
   117   60   61 1    
   118   60   62 1    
   119   60  126 1    
   120   61  127 1    
   121   61  128 1    
   122   61  129 1    
   123   62   63 2    
   124   62   64 am   BACKBONE|DICT|INTERRES
   125   64   65 1    
   126   64  130 1    
   127   65   66 1    
   128   65   69 1    
   129   65  131 1    
   130   66   67 am   BACKBONE|DICT|INTERRES
   131   66   68 2    
   132   67  132 1    
   133   67  133 1    
   134   69   70 1    
   135   69  134 1    
   136   69  135 1    
   137   70   71 1    
   138   71  136 1    
   139   71  137 1    
@<TRIPOS>SUBSTRUCTURE
     1 UNK         1 GROUP             0       ****    0 ROOT    
