@<TRIPOS>MOLECULE
3R136
137   139    1
SMALL
USER_CHARGES


@<TRIPOS>ATOM
      1 CA         26.7410   22.0988    3.2936 C.3       0 UNK        -0.1979 
      2 C          27.1404   23.3759    2.5724 C.2       0 UNK         0.4864 
      3 O          26.3677   23.8842    1.7594 O.2       0 UNK        -0.5359 
      4 N          28.3325   23.9110    2.8739 N.am      1 UNK        -0.4318 
      5 CA         28.9472   25.0940    2.2489 C.3       1 UNK         0.0824 
      6 C6         30.3312   25.4068    2.8623 C.3       12 UNK        -0.0944 
      7 S7         31.4957   24.0125    2.7208 S.3       12 UNK        -0.2672 
      8 C8         33.0984   24.8696    2.9139 C.3       12 UNK         0.0333 
      9 C9         33.5744   25.6980    1.7173 C.ar      12 UNK        -0.0807 
     10 C10        34.7100   26.4986    1.8843 C.ar      12 UNK        -0.0894 
     11 C11        35.2135   27.2584    0.8247 C.ar      12 UNK        -0.0804 
     12 C12        34.5633   27.2297   -0.4110 C.ar      12 UNK        -0.0824 
     13 C13        33.4302   26.4353   -0.5989 C.ar      12 UNK        -0.0762 
     14 C14        32.9452   25.6668    0.4637 C.ar      12 UNK        -0.0782 
     15 C15        32.7508   26.3969   -1.9604 C.3       12 UNK         0.0230 
     16 S16        31.5854   27.7802   -2.1630 S.3       12 UNK        -0.2608 
     17 C17        30.1489   27.2092   -1.1947 C.3       12 UNK        -0.0989 
     18 CA         28.8158   27.3409   -1.9805 C.3       5 UNK         0.0716 
     19 N          27.8723   26.2873   -1.5932 N.am      5 UNK        -0.4135 
     20 C          27.0443   25.6608   -2.4383 C.2       4 UNK         0.5031 
     21 O          26.9888   25.8857   -3.6479 O.2       4 UNK        -0.5229 
     22 CA         26.1227   24.5955   -1.8275 C.3       4 UNK         0.0329 
     23 CB         26.9002   23.2972   -1.5530 C.3       4 UNK        -0.2001 
     24 N          25.4661   25.0397   -0.5964 N.am      4 UNK        -0.4303 
     25 C          24.4760   25.9424   -0.5428 C.2       3 UNK         0.5044 
     26 O          24.0619   26.5652   -1.5203 O.2       3 UNK        -0.5152 
     27 CA         23.8319   26.1861    0.8287 C.3       3 UNK         0.0319 
     28 CB         22.9264   25.0051    1.2176 C.3       3 UNK        -0.2001 
     29 N          24.8495   26.3754    1.8623 N.am      3 UNK        -0.4354 
     30 C          25.1140   27.5408    2.4693 C.2       2 UNK         0.4964 
     31 O          24.4981   28.5829    2.2469 O.2       2 UNK        -0.5047 
     32 CA         26.2587   27.5684    3.5002 C.3       2 UNK         0.0288 
     33 CB         25.6992   27.5252    4.9312 C.3       2 UNK        -0.2113 
     34 N          27.2420   26.4951    3.3396 N.am      2 UNK        -0.4145 
     35 C          28.0626   26.3582    2.2891 C.2       1 UNK         0.5006 
     36 O          28.1095   27.1590    1.3534 O.2       1 UNK        -0.5103 
     37 C          28.1955   28.7434   -1.8007 C.2       5 UNK         0.5055 
     38 O          28.6686   29.6953   -2.4227 O.2       5 UNK        -0.5220 
     39 N          27.1701   28.8455   -0.9381 N.am      6 UNK        -0.4450 
     40 CA         26.5692   30.0754   -0.4080 C.3       6 UNK         0.0367 
     41 CB         25.9025   30.9115   -1.5213 C.3       6 UNK        -0.1929 
     42 C          27.5706   30.8777    0.4491 C.2       6 UNK         0.5070 
     43 O          27.5503   32.1098    0.4314 O.2       6 UNK        -0.5237 
     44 N          28.4367   30.1545    1.1714 N.am      7 UNK        -0.4739 
     45 CA         29.4818   30.6923    2.0380 C.3       7 UNK         0.0276 
     46 CB         30.8535   30.1921    1.5301 C.3       7 UNK        -0.1927 
     47 C          29.1582   30.2920    3.4862 C.2       7 UNK         0.5013 
     48 O          28.0961   30.6585    3.9910 O.2       7 UNK        -0.5193 
     49 N          30.0578   29.5379    4.1204 N.am      8 UNK        -0.4253 
     50 CA         29.9414   28.9419    5.4449 C.3       8 UNK         0.0242 
     51 CB         30.1517   30.0068    6.5376 C.3       8 UNK        -0.2000 
     52 C          31.0066   27.8442    5.5239 C.2       8 UNK         0.4948 
     53 O          31.9051   27.8138    4.6779 O.2       8 UNK        -0.5275 
     54 N          30.9155   26.9717    6.5366 N.am      9 UNK        -0.4246 
     55 CA         31.8278   25.8361    6.7471 C.3       9 UNK         0.0261 
     56 CB         31.3568   25.0230    7.9633 C.3       9 UNK        -0.1959 
     57 C          33.3116   26.2269    6.9023 C.2       9 UNK         0.5033 
     58 O          34.1858   25.4476    6.5228 O.2       9 UNK        -0.5390 
     59 N          33.5610   27.4343    7.4250 N.am      10 UNK        -0.4215 
     60 CA         34.8846   28.0458    7.5615 C.3       10 UNK         0.0240 
     61 CB         34.9012   28.8828    8.8544 C.3       10 UNK        -0.1982 
     62 C          35.2910   28.9000    6.3407 C.2       10 UNK         0.4970 
     63 O          36.2861   29.6192    6.4347 O.2       10 UNK        -0.4916 
     64 N          34.5243   28.8419    5.2398 N.am      11 UNK        -0.4279 
     65 CA         34.6705   29.6649    4.0244 C.3       11 UNK         0.1003 
     66 C          34.1695   31.1355    4.1826 C.2       11 UNK         0.5709 
     67 N          33.5626   31.5157    5.3010 N.am      11 UNK        -0.7358 
     68 O          34.2947   31.9441    3.2669 O.2       11 UNK        -0.4999 
     69 C69        36.0899   29.5551    3.3910 C.3       12 UNK        -0.0954 
     70 S70        36.1131   29.7688    1.5781 S.3       12 UNK        -0.2268 
     71 C71        36.4782   28.0860    0.9940 C.3       12 UNK         0.0203 
     72 H72        26.5690   21.3016    2.5711 H         1 UNK         0.0888 
     73 H73        27.5095   21.7661    3.9910 H         1 UNK         0.0888 
     74 H74        25.8191   22.2574    3.8522 H         1 UNK         0.0888 
     75 H75        28.9241   23.4330    3.5394 H         1 UNK         0.3017 
     76 H76        29.0919   24.8500    1.1948 H         1 UNK         0.0873 
     77 H77        30.2269   25.6433    3.9207 H         1 UNK         0.0745 
     78 H78        30.7754   26.2855    2.3890 H         1 UNK         0.0745 
     79 H79        33.8571   24.1163    3.1297 H         1 UNK         0.0705 
     80 H80        33.0463   25.5109    3.7942 H         1 UNK         0.0705 
     81 H81        35.2121   26.5218    2.8422 H         1 UNK         0.1334 
     82 H82        34.9451   27.8203   -1.2329 H         1 UNK         0.1417 
     83 H83        32.0795   25.0424    0.3005 H         1 UNK         0.1562 
     84 H84        32.2383   25.4463   -2.1161 H         1 UNK         0.0748 
     85 H85        33.5061   26.4609   -2.7453 H         1 UNK         0.0748 
     86 H86        30.1245   27.7494   -0.2474 H         1 UNK         0.0940 
     87 H87        30.3147   26.1657   -0.9262 H         1 UNK         0.0940 
     88 H88        29.0354   27.2274   -3.0446 H         1 UNK         0.0703 
     89 H89        27.8351   26.0576   -0.6102 H         1 UNK         0.3081 
     90 H90        25.3447   24.3717   -2.5608 H         1 UNK         0.0719 
     91 H91        26.2373   22.5080   -1.1978 H         1 UNK         0.0809 
     92 H92        27.3823   22.9308   -2.4604 H         1 UNK         0.0809 
     93 H93        27.6791   23.4387   -0.8028 H         1 UNK         0.0809 
     94 H94        25.7435   24.5640    0.2623 H         1 UNK         0.2990 
     95 H95        23.2013   27.0736    0.7425 H         1 UNK         0.0690 
     96 H96        22.1649   24.8290    0.4566 H         1 UNK         0.0788 
     97 H97        22.4071   25.2005    2.1559 H         1 UNK         0.0788 
     98 H98        23.4914   24.0795    1.3364 H         1 UNK         0.0788 
     99 H99        25.4202   25.5643    2.0804 H         1 UNK         0.2993 
    100 H100       26.7762   28.5178    3.3637 H         1 UNK         0.0949 
    101 H101       25.1817   26.5868    5.1346 H         1 UNK         0.0767 
    102 H102       26.4909   27.6423    5.6713 H         1 UNK         0.0767 
    103 H103       24.9854   28.3340    5.0950 H         1 UNK         0.0767 
    104 H104       27.2536   25.7784    4.0507 H         1 UNK         0.3013 
    105 H105       26.8909   27.9988   -0.4637 H         1 UNK         0.3121 
    106 H106       25.7789   29.7586    0.2719 H         1 UNK         0.0774 
    107 H107       26.6358   31.3490   -2.1989 H         1 UNK         0.0815 
    108 H108       25.3265   31.7340   -1.0958 H         1 UNK         0.0815 
    109 H109       25.2150   30.3069   -2.1127 H         1 UNK         0.0815 
    110 H110       28.3419   29.1436    1.1645 H         1 UNK         0.2987 
    111 H111       29.4858   31.7840    2.0075 H         1 UNK         0.0949 
    112 H112       30.9419   29.1055    1.5705 H         1 UNK         0.0806 
    113 H113       31.0170   30.4915    0.4944 H         1 UNK         0.0806 
    114 H114       31.6714   30.6175    2.1136 H         1 UNK         0.0806 
    115 H115       30.8966   29.2421    3.6339 H         1 UNK         0.3010 
    116 H116       28.9550   28.4847    5.5460 H         1 UNK         0.0829 
    117 H117       29.3970   30.7911    6.4780 H         1 UNK         0.0813 
    118 H118       30.0804   29.5724    7.5352 H         1 UNK         0.0813 
    119 H119       31.1291   30.4819    6.4546 H         1 UNK         0.0813 
    120 H120       30.1550   27.0662    7.1953 H         1 UNK         0.3038 
    121 H121       31.7573   25.1945    5.8667 H         1 UNK         0.0769 
    122 H122       31.3684   25.6180    8.8774 H         1 UNK         0.0811 
    123 H123       32.0025   24.1592    8.1289 H         1 UNK         0.0811 
    124 H124       30.3448   24.6436    7.8205 H         1 UNK         0.0811 
    125 H125       32.7722   27.9952    7.7120 H         1 UNK         0.3204 
    126 H126       35.6365   27.2602    7.6615 H         1 UNK         0.0748 
    127 H127       35.8923   29.2973    9.0443 H         1 UNK         0.0771 
    128 H128       34.2022   29.7186    8.8051 H         1 UNK         0.0771 
    129 H129       34.6390   28.2766    9.7219 H         1 UNK         0.0771 
    130 H130       33.7009   28.2476    5.2379 H         1 UNK         0.2980 
    131 H131       33.9681   29.2121    3.3235 H         1 UNK         0.0545 
    132 H132       33.4605   30.8765    6.0700 H         1 UNK         0.3459 
    133 H133       33.2373   32.4657    5.3830 H         1 UNK         0.3459 
    134 H134       36.7659   30.2900    3.8312 H         1 UNK         0.0616 
    135 H135       36.5281   28.5845    3.6257 H         1 UNK         0.0616 
    136 H136       36.9959   28.1622    0.0365 H         1 UNK         0.0634 
    137 H137       37.1769   27.5888    1.6681 H         1 UNK         0.0634 
@<TRIPOS>BOND
     1    1    2 1    
     2    1   72 1    
     3    1   73 1    
     4    1   74 1    
     5    2    3 2    
     6    2    4 am   BACKBONE|DICT|INTERRES
     7    4    5 1    
     8    4   75 1    
     9    5    6 1    
    10    5   35 1    
    11    5   76 1    
    12    6    7 1    
    13    6   77 1    
    14    6   78 1    
    15    7    8 1    
    16    8    9 1    
    17    8   79 1    
    18    8   80 1    
    19    9   10 ar   
    20    9   14 ar   
    21   10   11 ar   
    22   10   81 1    
    23   11   12 ar   
    24   11   71 1    
    25   12   13 ar   
    26   12   82 1    
    27   13   14 ar   
    28   13   15 1    
    29   14   83 1    
    30   15   16 1    
    31   15   84 1    
    32   15   85 1    
    33   16   17 1    
    34   17   18 1    
    35   17   86 1    
    36   17   87 1    
    37   18   19 1    
    38   18   37 1    
    39   18   88 1    
    40   19   20 am   BACKBONE|DICT|INTERRES
    41   19   89 1    
    42   20   21 2    
    43   20   22 1    
    44   22   23 1    
    45   22   24 1    
    46   22   90 1    
    47   23   91 1    
    48   23   92 1    
    49   23   93 1    
    50   24   25 am   BACKBONE|DICT|INTERRES
    51   24   94 1    
    52   25   26 2    
    53   25   27 1    
    54   27   28 1    
    55   27   29 1    
    56   27   95 1    
    57   28   96 1    
    58   28   97 1    
    59   28   98 1    
    60   29   30 am   BACKBONE|DICT|INTERRES
    61   29   99 1    
    62   30   31 2    
    63   30   32 1    
    64   32   33 1    
    65   32   34 1    
    66   32  100 1    
    67   33  101 1    
    68   33  102 1    
    69   33  103 1    
    70   34   35 am   BACKBONE|DICT|INTERRES
    71   34  104 1    
    72   35   36 2    
    73   37   38 2    
    74   37   39 am   BACKBONE|DICT|INTERRES
    75   39   40 1    
    76   39  105 1    
    77   40   41 1    
    78   40   42 1    
    79   40  106 1    
    80   41  107 1    
    81   41  108 1    
    82   41  109 1    
    83   42   43 2    
    84   42   44 am   BACKBONE|DICT|INTERRES
    85   44   45 1    
    86   44  110 1    
    87   45   46 1    
    88   45   47 1    
    89   45  111 1    
    90   46  112 1    
    91   46  113 1    
    92   46  114 1    
    93   47   48 2    
    94   47   49 am   BACKBONE|DICT|INTERRES
    95   49   50 1    
    96   49  115 1    
    97   50   51 1    
    98   50   52 1    
    99   50  116 1    
   100   51  117 1    
   101   51  118 1    
   102   51  119 1    
   103   52   53 2    
   104   52   54 am   BACKBONE|DICT|INTERRES
   105   54   55 1    
   106   54  120 1    
   107   55   56 1    
   108   55   57 1    
   109   55  121 1    
   110   56  122 1    
   111   56  123 1    
   112   56  124 1    
   113   57   58 2    
   114   57   59 am   BACKBONE|DICT|INTERRES
   115   59   60 1    
   116   59  125 1    
   117   60   61 1    
   118   60   62 1    
   119   60  126 1    
   120   61  127 1    
   121   61  128 1    
   122   61  129 1    
   123   62   63 2    
   124   62   64 am   BACKBONE|DICT|INTERRES
   125   64   65 1    
   126   64  130 1    
   127   65   66 1    
   128   65   69 1    
   129   65  131 1    
   130   66   67 am   BACKBONE|DICT|INTERRES
   131   66   68 2    
   132   67  132 1    
   133   67  133 1    
   134   69   70 1    
   135   69  134 1    
   136   69  135 1    
   137   70   71 1    
   138   71  136 1    
   139   71  137 1    
@<TRIPOS>SUBSTRUCTURE
     1 UNK         1 GROUP             0       ****    0 ROOT    
