@<TRIPOS>MOLECULE
3R136
137   139    1
SMALL
USER_CHARGES


@<TRIPOS>ATOM
      1 CA         26.3180   22.4507   -0.0399 C.3       0 UNK        -0.1979 
      2 C          27.3374   23.3670    0.6187 C.2       0 UNK         0.4864 
      3 O          27.3785   24.5574    0.3005 O.2       0 UNK        -0.5359 
      4 N          28.1548   22.8176    1.5270 N.am      1 UNK        -0.4318 
      5 CA         29.1901   23.5225    2.2888 C.3       1 UNK         0.0824 
      6 C6         29.9974   22.5529    3.1910 C.3       12 UNK        -0.0944 
      7 S7         31.0110   21.3832    2.2267 S.3       12 UNK        -0.2672 
      8 C8         32.6485   22.1808    2.3094 C.3       12 UNK         0.0333 
      9 C9         32.6315   23.5412    1.6296 C.ar      12 UNK        -0.0807 
     10 C10        32.5508   24.7111    2.3891 C.ar      12 UNK        -0.0894 
     11 C11        32.4667   25.9580    1.7652 C.ar      12 UNK        -0.0804 
     12 C12        32.4882   26.0296    0.3678 C.ar      12 UNK        -0.0824 
     13 C13        32.5807   24.8645   -0.4055 C.ar      12 UNK        -0.0762 
     14 C14        32.6553   23.6253    0.2361 C.ar      12 UNK        -0.0782 
     15 C15        32.6165   24.9082   -1.9317 C.3       12 UNK         0.0230 
     16 S16        31.4974   26.1327   -2.6874 S.3       12 UNK        -0.2608 
     17 C17        29.8620   25.6234   -2.0498 C.3       12 UNK        -0.0989 
     18 CA         28.8468   26.7884   -2.1218 C.3       5 UNK         0.0716 
     19 N          27.4832   26.3374   -1.8759 N.am      5 UNK        -0.4135 
     20 C          26.4044   26.7965   -2.5237 C.2       4 UNK         0.5031 
     21 O          26.4516   27.5590   -3.4901 O.2       4 UNK        -0.5229 
     22 CA         25.0337   26.3512   -1.9885 C.3       4 UNK         0.0329 
     23 CB         24.6473   24.9762   -2.5561 C.3       4 UNK        -0.2001 
     24 N          24.9972   26.3101   -0.5259 N.am      4 UNK        -0.4303 
     25 C          25.0519   27.3887    0.2666 C.2       3 UNK         0.5044 
     26 O          25.0786   28.5481   -0.1459 O.2       3 UNK        -0.5152 
     27 CA         25.1199   27.1313    1.7729 C.3       3 UNK         0.0319 
     28 CB         24.3576   25.8695    2.2301 C.3       3 UNK        -0.2001 
     29 N          26.5250   27.0298    2.1431 N.am      3 UNK        -0.4354 
     30 C          27.0362   27.3708    3.3306 C.2       2 UNK         0.4964 
     31 O          26.3658   27.8315    4.2560 O.2       2 UNK        -0.5047 
     32 CA         28.5509   27.1420    3.5039 C.3       2 UNK         0.0288 
     33 CB         29.0061   27.2059    4.9771 C.3       2 UNK        -0.2113 
     34 N          29.0098   25.8994    2.8672 N.am      2 UNK        -0.4145 
     35 C          28.5853   24.6547    3.1396 C.2       1 UNK         0.5006 
     36 O          27.7601   24.3708    4.0116 O.2       1 UNK        -0.5103 
     37 C          29.1735   27.8952   -1.1053 C.2       5 UNK         0.5055 
     38 O          29.0163   27.6820    0.1015 O.2       5 UNK        -0.5220 
     39 N          29.6392   29.0387   -1.6280 N.am      6 UNK        -0.4450 
     40 CA         30.2030   30.2237   -0.9647 C.3       6 UNK         0.0367 
     41 CB         31.5088   29.8625   -0.2367 C.3       6 UNK        -0.1929 
     42 C          29.2746   31.0071   -0.0198 C.2       6 UNK         0.5070 
     43 O          29.4533   32.2186    0.1017 O.2       6 UNK        -0.5237 
     44 N          28.3493   30.3267    0.6672 N.am      7 UNK        -0.4739 
     45 CA         27.4054   30.8079    1.6902 C.3       7 UNK         0.0276 
     46 CB         26.4640   31.8899    1.1272 C.3       7 UNK        -0.1927 
     47 C          28.0575   31.2666    3.0119 C.2       7 UNK         0.5013 
     48 O          27.4225   31.1522    4.0603 O.2       7 UNK        -0.5193 
     49 N          29.2982   31.7654    2.9557 N.am      8 UNK        -0.4253 
     50 CA         30.1282   32.1291    4.1022 C.3       8 UNK         0.0242 
     51 CB         31.3600   32.9012    3.6019 C.3       8 UNK        -0.2000 
     52 C          30.5655   30.8878    4.8956 C.2       8 UNK         0.4948 
     53 O          30.9112   29.8683    4.2968 O.2       8 UNK        -0.5275 
     54 N          30.5837   31.0147    6.2279 N.am      9 UNK        -0.4246 
     55 CA         30.9497   29.9437    7.1600 C.3       9 UNK         0.0261 
     56 CB         30.3694   30.2707    8.5461 C.3       9 UNK        -0.1959 
     57 C          32.4630   29.6799    7.2611 C.2       9 UNK         0.5033 
     58 O          32.8451   28.6479    7.8133 O.2       9 UNK        -0.5390 
     59 N          33.2965   30.6001    6.7520 N.am      10 UNK        -0.4215 
     60 CA         34.7626   30.5782    6.8469 C.3       10 UNK         0.0240 
     61 CB         35.3332   31.8313    6.1625 C.3       10 UNK        -0.1982 
     62 C          35.4282   29.3085    6.2840 C.2       10 UNK         0.4970 
     63 O          36.4171   28.8448    6.8531 O.2       10 UNK        -0.4916 
     64 N          34.8671   28.7694    5.1967 N.am      11 UNK        -0.4279 
     65 CA         35.2566   27.4897    4.5850 C.3       11 UNK         0.1003 
     66 C          34.6105   26.2348    5.2445 C.2       11 UNK         0.5709 
     67 N          33.7562   26.3602    6.2533 N.am      11 UNK        -0.7358 
     68 O          34.9110   25.1118    4.8482 O.2       11 UNK        -0.4999 
     69 C69        35.1102   27.5075    3.0339 C.3       12 UNK        -0.0954 
     70 S70        33.6610   28.4093    2.3827 S.3       12 UNK        -0.2268 
     71 C71        32.3075   27.2162    2.6080 C.3       12 UNK         0.0203 
     72 H72        25.3150   22.8618    0.0678 H         1 UNK         0.0888 
     73 H73        26.5373   22.3515   -1.1024 H         1 UNK         0.0888 
     74 H74        26.3225   21.4540    0.4009 H         1 UNK         0.0888 
     75 H75        28.0644   21.8350    1.7401 H         1 UNK         0.3017 
     76 H76        29.8664   23.9702    1.5584 H         1 UNK         0.0873 
     77 H77        30.6491   23.1001    3.8746 H         1 UNK         0.0745 
     78 H78        29.3244   21.9764    3.8288 H         1 UNK         0.0745 
     79 H79        33.3834   21.5371    1.8237 H         1 UNK         0.0705 
     80 H80        32.9610   22.2702    3.3512 H         1 UNK         0.0705 
     81 H81        32.5284   24.6479    3.4684 H         1 UNK         0.1334 
     82 H82        32.4265   26.9943   -0.1155 H         1 UNK         0.1417 
     83 H83        32.7161   22.7167   -0.3480 H         1 UNK         0.1562 
     84 H84        32.3724   23.9293   -2.3477 H         1 UNK         0.0748 
     85 H85        33.6368   25.1301   -2.2465 H         1 UNK         0.0748 
     86 H86        29.9442   25.2426   -1.0297 H         1 UNK         0.0940 
     87 H87        29.5142   24.7862   -2.6569 H         1 UNK         0.0940 
     88 H88        28.9033   27.2060   -3.1298 H         1 UNK         0.0703 
     89 H89        27.3606   25.7314   -1.0650 H         1 UNK         0.3081 
     90 H90        24.2915   27.0790   -2.3237 H         1 UNK         0.0719 
     91 H91        24.6156   25.0021   -3.6462 H         1 UNK         0.0809 
     92 H92        25.3626   24.2046   -2.2714 H         1 UNK         0.0809 
     93 H93        23.6606   24.6659   -2.2117 H         1 UNK         0.0809 
     94 H94        25.0305   25.3986   -0.0934 H         1 UNK         0.2990 
     95 H95        24.6740   28.0005    2.2615 H         1 UNK         0.0690 
     96 H96        24.3058   25.8220    3.3181 H         1 UNK         0.0788 
     97 H97        24.8363   24.9511    1.8894 H         1 UNK         0.0788 
     98 H98        23.3315   25.8719    1.8599 H         1 UNK         0.0788 
     99 H99        27.1487   26.6635    1.4319 H         1 UNK         0.2993 
    100 H100       29.0378   27.9633    2.9752 H         1 UNK         0.0949 
    101 H101       28.7447   28.1689    5.4172 H         1 UNK         0.0767 
    102 H102       28.5361   26.4324    5.5847 H         1 UNK         0.0767 
    103 H103       30.0869   27.0953    5.0630 H         1 UNK         0.0767 
    104 H104       29.6394   26.0277    2.0858 H         1 UNK         0.3013 
    105 H105       29.6686   29.0880   -2.6373 H         1 UNK         0.3121 
    106 H106       30.4603   30.9113   -1.7721 H         1 UNK         0.0774 
    107 H107       31.3222   29.1834    0.5930 H         1 UNK         0.0815 
    108 H108       32.2241   29.3880   -0.9083 H         1 UNK         0.0815 
    109 H109       31.9900   30.7504    0.1758 H         1 UNK         0.0815 
    110 H110       28.3642   29.3177    0.5292 H         1 UNK         0.2987 
    111 H111       26.7843   29.9474    1.9397 H         1 UNK         0.0949 
    112 H112       25.9504   31.5379    0.2323 H         1 UNK         0.0806 
    113 H113       25.6976   32.1535    1.8571 H         1 UNK         0.0806 
    114 H114       26.9962   32.8069    0.8734 H         1 UNK         0.0806 
    115 H115       29.7107   31.8668    2.0355 H         1 UNK         0.3010 
    116 H116       29.5401   32.7827    4.7501 H         1 UNK         0.0829 
    117 H117       31.0706   33.7937    3.0467 H         1 UNK         0.0813 
    118 H118       31.9851   33.2272    4.4341 H         1 UNK         0.0813 
    119 H119       31.9810   32.2868    2.9477 H         1 UNK         0.0813 
    120 H120       30.2927   31.8904    6.6396 H         1 UNK         0.3038 
    121 H121       30.4916   29.0154    6.8149 H         1 UNK         0.0769 
    122 H122       30.5890   29.4752    9.2598 H         1 UNK         0.0811 
    123 H123       29.2849   30.3758    8.5078 H         1 UNK         0.0811 
    124 H124       30.7842   31.1946    8.9513 H         1 UNK         0.0811 
    125 H125       32.8842   31.4105    6.3149 H         1 UNK         0.3204 
    126 H126       35.0139   30.6268    7.9084 H         1 UNK         0.0748 
    127 H127       36.4218   31.8538    6.2330 H         1 UNK         0.0771 
    128 H128       35.0746   31.8666    5.1032 H         1 UNK         0.0771 
    129 H129       34.9628   32.7439    6.6300 H         1 UNK         0.0771 
    130 H130       34.0516   29.2098    4.7951 H         1 UNK         0.2980 
    131 H131       36.3229   27.3541    4.7754 H         1 UNK         0.0545 
    132 H132       33.3709   25.5271    6.6668 H         1 UNK         0.3459 
    133 H133       33.5289   27.2646    6.6542 H         1 UNK         0.3459 
    134 H134       35.9835   28.0097    2.6157 H         1 UNK         0.0616 
    135 H135       35.1365   26.5034    2.6070 H         1 UNK         0.0616 
    136 H136       32.2209   26.9749    3.6678 H         1 UNK         0.0634 
    137 H137       31.3707   27.7029    2.3394 H         1 UNK         0.0634 
@<TRIPOS>BOND
     1    1    2 1    
     2    1   72 1    
     3    1   73 1    
     4    1   74 1    
     5    2    3 2    
     6    2    4 am   BACKBONE|DICT|INTERRES
     7    4    5 1    
     8    4   75 1    
     9    5    6 1    
    10    5   35 1    
    11    5   76 1    
    12    6    7 1    
    13    6   77 1    
    14    6   78 1    
    15    7    8 1    
    16    8    9 1    
    17    8   79 1    
    18    8   80 1    
    19    9   10 ar   
    20    9   14 ar   
    21   10   11 ar   
    22   10   81 1    
    23   11   12 ar   
    24   11   71 1    
    25   12   13 ar   
    26   12   82 1    
    27   13   14 ar   
    28   13   15 1    
    29   14   83 1    
    30   15   16 1    
    31   15   84 1    
    32   15   85 1    
    33   16   17 1    
    34   17   18 1    
    35   17   86 1    
    36   17   87 1    
    37   18   19 1    
    38   18   37 1    
    39   18   88 1    
    40   19   20 am   BACKBONE|DICT|INTERRES
    41   19   89 1    
    42   20   21 2    
    43   20   22 1    
    44   22   23 1    
    45   22   24 1    
    46   22   90 1    
    47   23   91 1    
    48   23   92 1    
    49   23   93 1    
    50   24   25 am   BACKBONE|DICT|INTERRES
    51   24   94 1    
    52   25   26 2    
    53   25   27 1    
    54   27   28 1    
    55   27   29 1    
    56   27   95 1    
    57   28   96 1    
    58   28   97 1    
    59   28   98 1    
    60   29   30 am   BACKBONE|DICT|INTERRES
    61   29   99 1    
    62   30   31 2    
    63   30   32 1    
    64   32   33 1    
    65   32   34 1    
    66   32  100 1    
    67   33  101 1    
    68   33  102 1    
    69   33  103 1    
    70   34   35 am   BACKBONE|DICT|INTERRES
    71   34  104 1    
    72   35   36 2    
    73   37   38 2    
    74   37   39 am   BACKBONE|DICT|INTERRES
    75   39   40 1    
    76   39  105 1    
    77   40   41 1    
    78   40   42 1    
    79   40  106 1    
    80   41  107 1    
    81   41  108 1    
    82   41  109 1    
    83   42   43 2    
    84   42   44 am   BACKBONE|DICT|INTERRES
    85   44   45 1    
    86   44  110 1    
    87   45   46 1    
    88   45   47 1    
    89   45  111 1    
    90   46  112 1    
    91   46  113 1    
    92   46  114 1    
    93   47   48 2    
    94   47   49 am   BACKBONE|DICT|INTERRES
    95   49   50 1    
    96   49  115 1    
    97   50   51 1    
    98   50   52 1    
    99   50  116 1    
   100   51  117 1    
   101   51  118 1    
   102   51  119 1    
   103   52   53 2    
   104   52   54 am   BACKBONE|DICT|INTERRES
   105   54   55 1    
   106   54  120 1    
   107   55   56 1    
   108   55   57 1    
   109   55  121 1    
   110   56  122 1    
   111   56  123 1    
   112   56  124 1    
   113   57   58 2    
   114   57   59 am   BACKBONE|DICT|INTERRES
   115   59   60 1    
   116   59  125 1    
   117   60   61 1    
   118   60   62 1    
   119   60  126 1    
   120   61  127 1    
   121   61  128 1    
   122   61  129 1    
   123   62   63 2    
   124   62   64 am   BACKBONE|DICT|INTERRES
   125   64   65 1    
   126   64  130 1    
   127   65   66 1    
   128   65   69 1    
   129   65  131 1    
   130   66   67 am   BACKBONE|DICT|INTERRES
   131   66   68 2    
   132   67  132 1    
   133   67  133 1    
   134   69   70 1    
   135   69  134 1    
   136   69  135 1    
   137   70   71 1    
   138   71  136 1    
   139   71  137 1    
@<TRIPOS>SUBSTRUCTURE
     1 UNK         1 GROUP             0       ****    0 ROOT    
