@<TRIPOS>MOLECULE
3R136
137   139    1
SMALL
USER_CHARGES


@<TRIPOS>ATOM
      1 CA         30.4684   21.9003   -3.0951 C.3       0 UNK        -0.1979 
      2 C          29.6304   22.2958   -1.8886 C.2       0 UNK         0.4864 
      3 O          28.6068   22.9565   -2.0571 O.2       0 UNK        -0.5359 
      4 N          30.0611   21.8901   -0.6845 N.am      1 UNK        -0.4318 
      5 CA         29.4165   22.1291    0.6155 C.3       1 UNK         0.0824 
      6 C6         30.2386   21.4364    1.7415 C.3       12 UNK        -0.0944 
      7 S7         29.4528   21.3213    3.3904 S.3       12 UNK        -0.2672 
      8 C8         30.3134   22.6225    4.3244 C.3       12 UNK         0.0333 
      9 C9         29.8908   24.0208    3.8971 C.ar      12 UNK        -0.0807 
     10 C10        30.8265   24.9011    3.3437 C.ar      12 UNK        -0.0894 
     11 C11        30.4583   26.2078    3.0110 C.ar      12 UNK        -0.0804 
     12 C12        29.1467   26.6284    3.2446 C.ar      12 UNK        -0.0824 
     13 C13        28.1898   25.7494    3.7527 C.ar      12 UNK        -0.0762 
     14 C14        28.5707   24.4462    4.0870 C.ar      12 UNK        -0.0782 
     15 C15        26.7535   26.2155    3.9495 C.3       12 UNK         0.0230 
     16 S16        25.8531   26.3428    2.3669 S.3       12 UNK        -0.2608 
     17 C17        26.3031   28.0136    1.7704 C.3       12 UNK        -0.0989 
     18 CA         27.3049   28.0183    0.5815 C.3       5 UNK         0.0716 
     19 N          26.7447   27.4483   -0.6408 N.am      5 UNK        -0.4135 
     20 C          26.9465   26.1986   -1.0637 C.2       4 UNK         0.5031 
     21 O          27.5760   25.3499   -0.4259 O.2       4 UNK        -0.5229 
     22 CA         26.3708   25.8478   -2.4423 C.3       4 UNK         0.0329 
     23 CB         27.3584   26.2202   -3.5602 C.3       4 UNK        -0.2001 
     24 N          26.1348   24.4116   -2.4707 N.am      4 UNK        -0.4303 
     25 C          25.0127   23.8019   -2.8652 C.2       3 UNK         0.5044 
     26 O          24.0881   24.3639   -3.4540 O.2       3 UNK        -0.5152 
     27 CA         24.8797   22.3180   -2.4784 C.3       3 UNK         0.0319 
     28 CB         25.6227   21.4158   -3.4767 C.3       3 UNK        -0.2001 
     29 N          25.3805   22.0743   -1.1225 N.am      3 UNK        -0.4354 
     30 C          24.8149   22.5474   -0.0025 C.2       2 UNK         0.4964 
     31 O          23.7111   23.0932    0.0189 O.2       2 UNK        -0.5047 
     32 CA         25.6078   22.4378    1.3130 C.3       2 UNK         0.0288 
     33 CB         25.2186   21.1747    2.1062 C.3       2 UNK        -0.2113 
     34 N          27.0649   22.5628    1.1629 N.am      2 UNK        -0.4145 
     35 C          27.9304   21.7021    0.6071 C.2       1 UNK         0.5006 
     36 O          27.6074   20.6243    0.0992 O.2       1 UNK        -0.5103 
     37 C          27.7550   29.4506    0.2506 C.2       5 UNK         0.5055 
     38 O          27.1399   30.0964   -0.6037 O.2       5 UNK        -0.5220 
     39 N          28.8004   29.9207    0.9413 N.am      6 UNK        -0.4450 
     40 CA         29.3122   31.2881    0.8699 C.3       6 UNK         0.0367 
     41 CB         30.7807   31.2647    0.3926 C.3       6 UNK        -0.1929 
     42 C          29.0965   31.9444    2.2438 C.2       6 UNK         0.5070 
     43 O          27.9455   32.0975    2.6557 O.2       6 UNK        -0.5237 
     44 N          30.1810   32.3061    2.9353 N.am      7 UNK        -0.4739 
     45 CA         30.1835   32.8694    4.2824 C.3       7 UNK         0.0276 
     46 CB         30.2994   34.4008    4.1948 C.3       7 UNK        -0.1927 
     47 C          31.3695   32.2788    5.0491 C.2       7 UNK         0.5013 
     48 O          32.3465   31.8585    4.4226 O.2       7 UNK        -0.5193 
     49 N          31.2900   32.2959    6.3869 N.am      8 UNK        -0.4253 
     50 CA         32.2755   31.7186    7.3133 C.3       8 UNK         0.0242 
     51 CB         31.8154   31.9586    8.7600 C.3       8 UNK        -0.2000 
     52 C          33.7220   32.2115    7.1242 C.2       8 UNK         0.4948 
     53 O          34.6525   31.4468    7.3768 O.2       8 UNK        -0.5275 
     54 N          33.8882   33.4508    6.6407 N.am      9 UNK        -0.4246 
     55 CA         35.1779   34.0365    6.2637 C.3       9 UNK         0.0261 
     56 CB         34.9784   35.5246    5.9329 C.3       9 UNK        -0.1959 
     57 C          35.8716   33.3133    5.0915 C.2       9 UNK         0.5033 
     58 O          37.1008   33.3481    5.0159 O.2       9 UNK        -0.5390 
     59 N          35.0871   32.6762    4.2113 N.am      10 UNK        -0.4215 
     60 CA         35.5701   31.8469    3.1084 C.3       10 UNK         0.0240 
     61 CB         34.7229   32.1200    1.8531 C.3       10 UNK        -0.1982 
     62 C          35.5178   30.3575    3.4794 C.2       10 UNK         0.4970 
     63 O          36.4721   29.6342    3.1912 O.2       10 UNK        -0.4916 
     64 N          34.4067   29.9243    4.0900 N.am      11 UNK        -0.4279 
     65 CA         34.1417   28.5208    4.4427 C.3       11 UNK         0.1003 
     66 C          34.9929   27.9704    5.6207 C.2       11 UNK         0.5709 
     67 N          35.4968   28.7983    6.5274 N.am      11 UNK        -0.7358 
     68 O          35.2088   26.7639    5.7064 O.2       11 UNK        -0.4999 
     69 C69        32.6322   28.2570    4.6809 C.3       12 UNK        -0.0954 
     70 S70        31.6069   28.7365    3.2517 S.3       12 UNK        -0.2268 
     71 C71        31.4616   27.1543    2.3647 C.3       12 UNK         0.0203 
     72 H72        29.8736   21.2980   -3.7813 H         1 UNK         0.0888 
     73 H73        30.8028   22.7912   -3.6259 H         1 UNK         0.0888 
     74 H74        31.3483   21.3232   -2.8116 H         1 UNK         0.0888 
     75 H75        30.9018   21.3329   -0.6441 H         1 UNK         0.3017 
     76 H76        29.4505   23.2077    0.7865 H         1 UNK         0.0873 
     77 H77        31.2080   21.9272    1.8408 H         1 UNK         0.0745 
     78 H78        30.4613   20.4093    1.4461 H         1 UNK         0.0745 
     79 H79        30.0864   22.4976    5.3840 H         1 UNK         0.0705 
     80 H80        31.3917   22.4863    4.2275 H         1 UNK         0.0705 
     81 H81        31.8434   24.5716    3.1793 H         1 UNK         0.1334 
     82 H82        28.8658   27.6448    3.0192 H         1 UNK         0.1417 
     83 H83        27.8443   23.7607    4.5028 H         1 UNK         0.1562 
     84 H84        26.7359   27.1709    4.4756 H         1 UNK         0.0748 
     85 H85        26.2180   25.5129    4.5899 H         1 UNK         0.0748 
     86 H86        26.6939   28.5935    2.6083 H         1 UNK         0.0940 
     87 H87        25.3797   28.5179    1.4788 H         1 UNK         0.0940 
     88 H88        28.1990   27.4541    0.8482 H         1 UNK         0.0703 
     89 H89        26.2814   28.1207   -1.2385 H         1 UNK         0.3081 
     90 H90        25.4335   26.3912   -2.5803 H         1 UNK         0.0719 
     91 H91        26.9595   25.9619   -4.5412 H         1 UNK         0.0809 
     92 H92        28.3115   25.7025   -3.4402 H         1 UNK         0.0809 
     93 H93        27.5640   27.2913   -3.5636 H         1 UNK         0.0809 
     94 H94        26.8637   23.8654   -2.0137 H         1 UNK         0.2990 
     95 H95        23.8198   22.0564   -2.5024 H         1 UNK         0.0690 
     96 H96        25.4859   20.3616   -3.2355 H         1 UNK         0.0788 
     97 H97        26.6938   21.6203   -3.4893 H         1 UNK         0.0788 
     98 H98        25.2496   21.5682   -4.4904 H         1 UNK         0.0788 
     99 H99        26.2763   21.6059   -1.0335 H         1 UNK         0.2993 
    100 H100       25.3121   23.2992    1.9141 H         1 UNK         0.0949 
    101 H101       25.7479   21.1266    3.0580 H         1 UNK         0.0767 
    102 H102       24.1505   21.1708    2.3271 H         1 UNK         0.0767 
    103 H103       25.4363   20.2603    1.5539 H         1 UNK         0.0767 
    104 H104       27.4373   23.4528    1.4692 H         1 UNK         0.3013 
    105 H105       29.2276   29.3386    1.6469 H         1 UNK         0.3121 
    106 H106       28.7389   31.8797    0.1530 H         1 UNK         0.0774 
    107 H107       31.1916   32.2733    0.3293 H         1 UNK         0.0815 
    108 H108       31.4250   30.6818    1.0503 H         1 UNK         0.0815 
    109 H109       30.8560   30.8301   -0.6042 H         1 UNK         0.0815 
    110 H110       31.0994   32.0687    2.5828 H         1 UNK         0.2987 
    111 H111       29.2647   32.5963    4.8066 H         1 UNK         0.0949 
    112 H112       31.2192   34.7078    3.6948 H         1 UNK         0.0806 
    113 H113       29.4619   34.8284    3.6432 H         1 UNK         0.0806 
    114 H114       30.2973   34.8551    5.1864 H         1 UNK         0.0806 
    115 H115       30.4598   32.6850    6.8110 H         1 UNK         0.3010 
    116 H116       32.2852   30.6414    7.1371 H         1 UNK         0.0829 
    117 H117       32.5170   31.5197    9.4711 H         1 UNK         0.0813 
    118 H118       31.7420   33.0224    8.9896 H         1 UNK         0.0813 
    119 H119       30.8423   31.5049    8.9490 H         1 UNK         0.0813 
    120 H120       33.0650   34.0094    6.4695 H         1 UNK         0.3038 
    121 H121       35.8403   33.9630    7.1288 H         1 UNK         0.0769 
    122 H122       34.5699   36.0702    6.7837 H         1 UNK         0.0811 
    123 H123       34.3039   35.6640    5.0870 H         1 UNK         0.0811 
    124 H124       35.9273   35.9968    5.6737 H         1 UNK         0.0811 
    125 H125       34.0845   32.6560    4.3755 H         1 UNK         0.3204 
    126 H126       36.6067   32.0986    2.8742 H         1 UNK         0.0748 
    127 H127       35.0709   31.5209    1.0104 H         1 UNK         0.0771 
    128 H128       33.6706   31.8806    2.0098 H         1 UNK         0.0771 
    129 H129       34.7860   33.1665    1.5547 H         1 UNK         0.0771 
    130 H130       33.6440   30.5753    4.2561 H         1 UNK         0.2980 
    131 H131       34.4292   27.9247    3.5742 H         1 UNK         0.0545 
    132 H132       35.2701   29.7871    6.5286 H         1 UNK         0.3459 
    133 H133       36.0523   28.4188    7.2767 H         1 UNK         0.3459 
    134 H134       32.2817   28.8193    5.5472 H         1 UNK         0.0616 
    135 H135       32.4513   27.2047    4.9085 H         1 UNK         0.0616 
    136 H136       31.1381   27.3572    1.3430 H         1 UNK         0.0634 
    137 H137       32.4480   26.6942    2.2890 H         1 UNK         0.0634 
@<TRIPOS>BOND
     1    1    2 1    
     2    1   72 1    
     3    1   73 1    
     4    1   74 1    
     5    2    3 2    
     6    2    4 am   BACKBONE|DICT|INTERRES
     7    4    5 1    
     8    4   75 1    
     9    5    6 1    
    10    5   35 1    
    11    5   76 1    
    12    6    7 1    
    13    6   77 1    
    14    6   78 1    
    15    7    8 1    
    16    8    9 1    
    17    8   79 1    
    18    8   80 1    
    19    9   10 ar   
    20    9   14 ar   
    21   10   11 ar   
    22   10   81 1    
    23   11   12 ar   
    24   11   71 1    
    25   12   13 ar   
    26   12   82 1    
    27   13   14 ar   
    28   13   15 1    
    29   14   83 1    
    30   15   16 1    
    31   15   84 1    
    32   15   85 1    
    33   16   17 1    
    34   17   18 1    
    35   17   86 1    
    36   17   87 1    
    37   18   19 1    
    38   18   37 1    
    39   18   88 1    
    40   19   20 am   BACKBONE|DICT|INTERRES
    41   19   89 1    
    42   20   21 2    
    43   20   22 1    
    44   22   23 1    
    45   22   24 1    
    46   22   90 1    
    47   23   91 1    
    48   23   92 1    
    49   23   93 1    
    50   24   25 am   BACKBONE|DICT|INTERRES
    51   24   94 1    
    52   25   26 2    
    53   25   27 1    
    54   27   28 1    
    55   27   29 1    
    56   27   95 1    
    57   28   96 1    
    58   28   97 1    
    59   28   98 1    
    60   29   30 am   BACKBONE|DICT|INTERRES
    61   29   99 1    
    62   30   31 2    
    63   30   32 1    
    64   32   33 1    
    65   32   34 1    
    66   32  100 1    
    67   33  101 1    
    68   33  102 1    
    69   33  103 1    
    70   34   35 am   BACKBONE|DICT|INTERRES
    71   34  104 1    
    72   35   36 2    
    73   37   38 2    
    74   37   39 am   BACKBONE|DICT|INTERRES
    75   39   40 1    
    76   39  105 1    
    77   40   41 1    
    78   40   42 1    
    79   40  106 1    
    80   41  107 1    
    81   41  108 1    
    82   41  109 1    
    83   42   43 2    
    84   42   44 am   BACKBONE|DICT|INTERRES
    85   44   45 1    
    86   44  110 1    
    87   45   46 1    
    88   45   47 1    
    89   45  111 1    
    90   46  112 1    
    91   46  113 1    
    92   46  114 1    
    93   47   48 2    
    94   47   49 am   BACKBONE|DICT|INTERRES
    95   49   50 1    
    96   49  115 1    
    97   50   51 1    
    98   50   52 1    
    99   50  116 1    
   100   51  117 1    
   101   51  118 1    
   102   51  119 1    
   103   52   53 2    
   104   52   54 am   BACKBONE|DICT|INTERRES
   105   54   55 1    
   106   54  120 1    
   107   55   56 1    
   108   55   57 1    
   109   55  121 1    
   110   56  122 1    
   111   56  123 1    
   112   56  124 1    
   113   57   58 2    
   114   57   59 am   BACKBONE|DICT|INTERRES
   115   59   60 1    
   116   59  125 1    
   117   60   61 1    
   118   60   62 1    
   119   60  126 1    
   120   61  127 1    
   121   61  128 1    
   122   61  129 1    
   123   62   63 2    
   124   62   64 am   BACKBONE|DICT|INTERRES
   125   64   65 1    
   126   64  130 1    
   127   65   66 1    
   128   65   69 1    
   129   65  131 1    
   130   66   67 am   BACKBONE|DICT|INTERRES
   131   66   68 2    
   132   67  132 1    
   133   67  133 1    
   134   69   70 1    
   135   69  134 1    
   136   69  135 1    
   137   70   71 1    
   138   71  136 1    
   139   71  137 1    
@<TRIPOS>SUBSTRUCTURE
     1 UNK         1 GROUP             0       ****    0 ROOT    
