@<TRIPOS>MOLECULE
3R136
137   139    1
SMALL
USER_CHARGES


@<TRIPOS>ATOM
      1 CA         26.1735   18.0277    3.3123 C.3       0 UNK        -0.1979 
      2 C          26.6401   19.1396    2.3850 C.2       0 UNK         0.4864 
      3 O          26.1904   19.2129    1.2397 O.2       0 UNK        -0.5359 
      4 N          27.5289   20.0178    2.8692 N.am      1 UNK        -0.4318 
      5 CA         28.0979   21.1558    2.1352 C.3       1 UNK         0.0824 
      6 C6         29.4916   21.5368    2.7061 C.3       12 UNK        -0.0944 
      7 S7         30.6202   22.2394    1.4551 S.3       12 UNK        -0.2672 
      8 C8         30.4481   24.0214    1.7735 C.3       12 UNK         0.0333 
      9 C9         31.6750   24.7925    1.3140 C.ar      12 UNK        -0.0807 
     10 C10        32.6391   25.1882    2.2437 C.ar      12 UNK        -0.0894 
     11 C11        33.7485   25.9466    1.8498 C.ar      12 UNK        -0.0804 
     12 C12        33.8973   26.2807    0.4989 C.ar      12 UNK        -0.0824 
     13 C13        32.9495   25.8731   -0.4463 C.ar      12 UNK        -0.0762 
     14 C14        31.8403   25.1280   -0.0316 C.ar      12 UNK        -0.0782 
     15 C15        33.1367   26.2166   -1.9189 C.3       12 UNK         0.0230 
     16 S16        32.6942   27.9431   -2.3015 S.3       12 UNK        -0.2608 
     17 C17        30.8869   27.9373   -2.0333 C.3       12 UNK        -0.0989 
     18 CA         30.3251   29.2362   -1.4031 C.3       5 UNK         0.0716 
     19 N          28.8620   29.1709   -1.3670 N.am      5 UNK        -0.4135 
     20 C          28.0140   30.0824   -0.8700 C.2       4 UNK         0.5031 
     21 O          28.3635   31.1697   -0.4063 O.2       4 UNK        -0.5229 
     22 CA         26.5143   29.7228   -0.8933 C.3       4 UNK         0.0329 
     23 CB         25.7697   30.5969   -1.9156 C.3       4 UNK        -0.2001 
     24 N          26.2614   28.3080   -1.1974 N.am      4 UNK        -0.4303 
     25 C          26.4006   27.3018   -0.3236 C.2       3 UNK         0.5044 
     26 O          26.6935   27.4508    0.8644 O.2       3 UNK        -0.5152 
     27 CA         26.2323   25.8894   -0.8924 C.3       3 UNK         0.0319 
     28 CB         27.5401   25.4054   -1.5484 C.3       3 UNK        -0.2001 
     29 N          25.8626   24.9792    0.1869 N.am      3 UNK        -0.4354 
     30 C          25.1199   23.8776    0.0436 C.2       2 UNK         0.4964 
     31 O          24.6879   23.4769   -1.0394 O.2       2 UNK        -0.5047 
     32 CA         24.8471   23.0664    1.3192 C.3       2 UNK         0.0288 
     33 CB         23.4977   22.3263    1.2632 C.3       2 UNK        -0.2113 
     34 N          25.9144   22.0885    1.5121 N.am      2 UNK        -0.4145 
     35 C          27.0991   22.3381    2.0825 C.2       1 UNK         0.5006 
     36 O          27.3880   23.4297    2.5771 O.2       1 UNK        -0.5103 
     37 C          30.9236   29.5249   -0.0074 C.2       5 UNK         0.5055 
     38 O          30.4088   29.0266    0.9973 O.2       5 UNK        -0.5220 
     39 N          31.9845   30.3465    0.0124 N.am      6 UNK        -0.4450 
     40 CA         32.6960   30.8426    1.1961 C.3       6 UNK         0.0367 
     41 CB         33.4758   29.7013    1.8827 C.3       6 UNK        -0.1929 
     42 C          31.7715   31.6058    2.1634 C.2       6 UNK         0.5070 
     43 O          31.8468   31.3943    3.3718 O.2       6 UNK        -0.5237 
     44 N          30.8948   32.4565    1.6051 N.am      7 UNK        -0.4739 
     45 CA         29.8710   33.2501    2.3012 C.3       7 UNK         0.0276 
     46 CB         30.5277   34.3818    3.1203 C.3       7 UNK        -0.1927 
     47 C          28.9220   32.3691    3.1384 C.2       7 UNK         0.5013 
     48 O          28.7387   32.6138    4.3321 O.2       7 UNK        -0.5193 
     49 N          28.3671   31.3417    2.4798 N.am      8 UNK        -0.4253 
     50 CA         27.5418   30.2660    3.0373 C.3       8 UNK         0.0242 
     51 CB         26.1904   30.8076    3.5505 C.3       8 UNK        -0.2000 
     52 C          28.3053   29.4252    4.0785 C.2       8 UNK         0.4948 
     53 O          27.8344   29.2587    5.2057 O.2       8 UNK        -0.5275 
     54 N          29.4701   28.9072    3.6619 N.am      9 UNK        -0.4246 
     55 CA         30.3705   28.0228    4.4077 C.3       9 UNK         0.0261 
     56 CB         29.7124   26.6448    4.6306 C.3       9 UNK        -0.1959 
     57 C          30.9314   28.6400    5.7061 C.2       9 UNK         0.5033 
     58 O          31.0733   27.9373    6.7094 O.2       9 UNK        -0.5390 
     59 N          31.2927   29.9283    5.6621 N.am      10 UNK        -0.4215 
     60 CA         32.0171   30.6414    6.7153 C.3       10 UNK         0.0240 
     61 CB         31.4578   32.0718    6.8250 C.3       10 UNK        -0.1982 
     62 C          33.5176   30.6087    6.3754 C.2       10 UNK         0.4970 
     63 O          34.1313   31.6502    6.1371 O.2       10 UNK        -0.4916 
     64 N          34.0601   29.3884    6.3034 N.am      11 UNK        -0.4279 
     65 CA         35.3870   29.0650    5.7538 C.3       11 UNK         0.1003 
     66 C          36.5985   29.5107    6.6229 C.2       11 UNK         0.5709 
     67 N          36.4079   29.9318    7.8675 N.am      11 UNK        -0.7358 
     68 O          37.7342   29.4768    6.1549 O.2       11 UNK        -0.4999 
     69 C69        35.4918   27.5590    5.3835 C.3       12 UNK        -0.0954 
     70 S70        34.0534   26.9628    4.4306 S.3       12 UNK        -0.2268 
     71 C71        34.7970   26.3946    2.8675 C.3       12 UNK         0.0203 
     72 H72        26.4043   17.0556    2.8773 H         1 UNK         0.0888 
     73 H73        26.6522   18.0838    4.2898 H         1 UNK         0.0888 
     74 H74        25.0954   18.0889    3.4582 H         1 UNK         0.0888 
     75 H75        27.8324   19.9267    3.8287 H         1 UNK         0.3017 
     76 H76        28.2447   20.8309    1.1023 H         1 UNK         0.0873 
     77 H77        29.9941   20.6384    3.0686 H         1 UNK         0.0745 
     78 H78        29.4167   22.1861    3.5803 H         1 UNK         0.0745 
     79 H79        29.5603   24.3980    1.2633 H         1 UNK         0.0705 
     80 H80        30.2840   24.1909    2.8381 H         1 UNK         0.0705 
     81 H81        32.5153   24.9145    3.2823 H         1 UNK         0.1334 
     82 H82        34.7534   26.8579    0.1774 H         1 UNK         0.1417 
     83 H83        31.1029   24.8055   -0.7540 H         1 UNK         0.1562 
     84 H84        32.5497   25.5472   -2.5499 H         1 UNK         0.0748 
     85 H85        34.1793   26.0538   -2.1959 H         1 UNK         0.0748 
     86 H86        30.6017   27.0837   -1.4197 H         1 UNK         0.0940 
     87 H87        30.4224   27.7685   -3.0064 H         1 UNK         0.0940 
     88 H88        30.5767   30.0721   -2.0589 H         1 UNK         0.0703 
     89 H89        28.4566   28.3131   -1.7039 H         1 UNK         0.3081 
     90 H90        26.1112   29.9443    0.0972 H         1 UNK         0.0719 
     91 H91        26.1275   30.4267   -2.9319 H         1 UNK         0.0809 
     92 H92        24.6973   30.4014   -1.8987 H         1 UNK         0.0809 
     93 H93        25.9061   31.6570   -1.6959 H         1 UNK         0.0809 
     94 H94        26.0010   28.0924   -2.1501 H         1 UNK         0.2990 
     95 H95        25.4344   25.9134   -1.6382 H         1 UNK         0.0690 
     96 H96        27.8268   26.0464   -2.3826 H         1 UNK         0.0788 
     97 H97        27.4343   24.3949   -1.9438 H         1 UNK         0.0788 
     98 H98        28.3674   25.3987   -0.8372 H         1 UNK         0.0788 
     99 H99        26.1861   25.2585    1.1063 H         1 UNK         0.2993 
    100 H100       24.8183   23.7517    2.1696 H         1 UNK         0.0949 
    101 H101       23.2938   21.8070    2.1998 H         1 UNK         0.0767 
    102 H102       22.6771   23.0247    1.0939 H         1 UNK         0.0767 
    103 H103       23.4704   21.5880    0.4605 H         1 UNK         0.0767 
    104 H104       25.7599   21.1543    1.1442 H         1 UNK         0.3013 
    105 H105       32.3340   30.6845   -0.8740 H         1 UNK         0.3121 
    106 H106       33.4265   31.5707    0.8406 H         1 UNK         0.0774 
    107 H107       34.0595   30.0722    2.7259 H         1 UNK         0.0815 
    108 H108       32.8097   28.9282    2.2651 H         1 UNK         0.0815 
    109 H109       34.1716   29.2283    1.1908 H         1 UNK         0.0815 
    110 H110       30.8852   32.5231    0.5965 H         1 UNK         0.2987 
    111 H111       29.2547   33.7151    1.5297 H         1 UNK         0.0949 
    112 H112       31.1539   33.9913    3.9226 H         1 UNK         0.0806 
    113 H113       31.1494   35.0175    2.4903 H         1 UNK         0.0806 
    114 H114       29.7722   35.0205    3.5795 H         1 UNK         0.0806 
    115 H115       28.5806   31.2541    1.4887 H         1 UNK         0.3010 
    116 H116       27.3274   29.5910    2.2096 H         1 UNK         0.0829 
    117 H117       25.6647   31.3617    2.7730 H         1 UNK         0.0813 
    118 H118       25.5396   29.9899    3.8624 H         1 UNK         0.0813 
    119 H119       26.3151   31.4678    4.4092 H         1 UNK         0.0813 
    120 H120       29.7635   29.0945    2.7025 H         1 UNK         0.3038 
    121 H121       31.2288   27.8664    3.7537 H         1 UNK         0.0769 
    122 H122       28.8908   26.7011    5.3452 H         1 UNK         0.0811 
    123 H123       30.4351   25.9259    5.0184 H         1 UNK         0.0811 
    124 H124       29.3176   26.2402    3.6988 H         1 UNK         0.0811 
    125 H125       31.2474   30.4211    4.7688 H         1 UNK         0.3204 
    126 H126       31.8778   30.1490    7.6798 H         1 UNK         0.0748 
    127 H127       31.9649   32.6322    7.6112 H         1 UNK         0.0771 
    128 H128       31.5820   32.6249    5.8934 H         1 UNK         0.0771 
    129 H129       30.3940   32.0622    7.0633 H         1 UNK         0.0771 
    130 H130       33.4728   28.5927    6.5118 H         1 UNK         0.2980 
    131 H131       35.4768   29.6279    4.8229 H         1 UNK         0.0545 
    132 H132       37.2001   30.2214    8.4191 H         1 UNK         0.3459 
    133 H133       35.4791   29.9710    8.2549 H         1 UNK         0.3459 
    134 H134       36.4046   27.3679    4.8162 H         1 UNK         0.0616 
    135 H135       35.5610   26.9505    6.2870 H         1 UNK         0.0616 
    136 H136       35.4030   27.2043    2.4580 H         1 UNK         0.0634 
    137 H137       35.4721   25.5630    3.0726 H         1 UNK         0.0634 
@<TRIPOS>BOND
     1    1    2 1    
     2    1   72 1    
     3    1   73 1    
     4    1   74 1    
     5    2    3 2    
     6    2    4 am   BACKBONE|DICT|INTERRES
     7    4    5 1    
     8    4   75 1    
     9    5    6 1    
    10    5   35 1    
    11    5   76 1    
    12    6    7 1    
    13    6   77 1    
    14    6   78 1    
    15    7    8 1    
    16    8    9 1    
    17    8   79 1    
    18    8   80 1    
    19    9   10 ar   
    20    9   14 ar   
    21   10   11 ar   
    22   10   81 1    
    23   11   12 ar   
    24   11   71 1    
    25   12   13 ar   
    26   12   82 1    
    27   13   14 ar   
    28   13   15 1    
    29   14   83 1    
    30   15   16 1    
    31   15   84 1    
    32   15   85 1    
    33   16   17 1    
    34   17   18 1    
    35   17   86 1    
    36   17   87 1    
    37   18   19 1    
    38   18   37 1    
    39   18   88 1    
    40   19   20 am   BACKBONE|DICT|INTERRES
    41   19   89 1    
    42   20   21 2    
    43   20   22 1    
    44   22   23 1    
    45   22   24 1    
    46   22   90 1    
    47   23   91 1    
    48   23   92 1    
    49   23   93 1    
    50   24   25 am   BACKBONE|DICT|INTERRES
    51   24   94 1    
    52   25   26 2    
    53   25   27 1    
    54   27   28 1    
    55   27   29 1    
    56   27   95 1    
    57   28   96 1    
    58   28   97 1    
    59   28   98 1    
    60   29   30 am   BACKBONE|DICT|INTERRES
    61   29   99 1    
    62   30   31 2    
    63   30   32 1    
    64   32   33 1    
    65   32   34 1    
    66   32  100 1    
    67   33  101 1    
    68   33  102 1    
    69   33  103 1    
    70   34   35 am   BACKBONE|DICT|INTERRES
    71   34  104 1    
    72   35   36 2    
    73   37   38 2    
    74   37   39 am   BACKBONE|DICT|INTERRES
    75   39   40 1    
    76   39  105 1    
    77   40   41 1    
    78   40   42 1    
    79   40  106 1    
    80   41  107 1    
    81   41  108 1    
    82   41  109 1    
    83   42   43 2    
    84   42   44 am   BACKBONE|DICT|INTERRES
    85   44   45 1    
    86   44  110 1    
    87   45   46 1    
    88   45   47 1    
    89   45  111 1    
    90   46  112 1    
    91   46  113 1    
    92   46  114 1    
    93   47   48 2    
    94   47   49 am   BACKBONE|DICT|INTERRES
    95   49   50 1    
    96   49  115 1    
    97   50   51 1    
    98   50   52 1    
    99   50  116 1    
   100   51  117 1    
   101   51  118 1    
   102   51  119 1    
   103   52   53 2    
   104   52   54 am   BACKBONE|DICT|INTERRES
   105   54   55 1    
   106   54  120 1    
   107   55   56 1    
   108   55   57 1    
   109   55  121 1    
   110   56  122 1    
   111   56  123 1    
   112   56  124 1    
   113   57   58 2    
   114   57   59 am   BACKBONE|DICT|INTERRES
   115   59   60 1    
   116   59  125 1    
   117   60   61 1    
   118   60   62 1    
   119   60  126 1    
   120   61  127 1    
   121   61  128 1    
   122   61  129 1    
   123   62   63 2    
   124   62   64 am   BACKBONE|DICT|INTERRES
   125   64   65 1    
   126   64  130 1    
   127   65   66 1    
   128   65   69 1    
   129   65  131 1    
   130   66   67 am   BACKBONE|DICT|INTERRES
   131   66   68 2    
   132   67  132 1    
   133   67  133 1    
   134   69   70 1    
   135   69  134 1    
   136   69  135 1    
   137   70   71 1    
   138   71  136 1    
   139   71  137 1    
@<TRIPOS>SUBSTRUCTURE
     1 UNK         1 GROUP             0       ****    0 ROOT    
