@<TRIPOS>MOLECULE
3R136
137   139    1
SMALL
USER_CHARGES


@<TRIPOS>ATOM
      1 CA         27.0230   22.7204    4.7344 C.3       0 UNK        -0.1979 
      2 C          26.8618   22.7861    3.2231 C.2       0 UNK         0.4864 
      3 O          25.7361   22.7391    2.7260 O.2       0 UNK        -0.5359 
      4 N          27.9787   22.8834    2.4907 N.am      1 UNK        -0.4318 
      5 CA         28.0165   23.0032    1.0298 C.3       1 UNK         0.0824 
      6 C6         29.4435   22.7875    0.4711 C.3       12 UNK        -0.0944 
      7 S7         30.1331   21.1587    0.9087 S.3       12 UNK        -0.2672 
      8 C8         31.9268   21.4802    0.7804 C.3       12 UNK         0.0333 
      9 C9         32.4428   22.5277    1.7656 C.ar      12 UNK        -0.0807 
     10 C10        33.3246   23.5225    1.3260 C.ar      12 UNK        -0.0894 
     11 C11        33.8337   24.4726    2.2185 C.ar      12 UNK        -0.0804 
     12 C12        33.4560   24.4150    3.5627 C.ar      12 UNK        -0.0824 
     13 C13        32.5544   23.4471    4.0115 C.ar      12 UNK        -0.0762 
     14 C14        32.0653   22.4952    3.1130 C.ar      12 UNK        -0.0782 
     15 C15        32.1230   23.4246    5.4707 C.3       12 UNK         0.0230 
     16 S16        31.4232   25.0186    6.0114 S.3       12 UNK        -0.2608 
     17 C17        29.8456   25.0914    5.0997 C.3       12 UNK        -0.0989 
     18 CA         29.5975   26.5038    4.5034 C.3       5 UNK         0.0716 
     19 N          30.0545   26.6332    3.1100 N.am      5 UNK        -0.4135 
     20 C          30.0540   27.7764    2.4072 C.2       4 UNK         0.5031 
     21 O          29.6639   28.8513    2.8672 O.2       4 UNK        -0.5229 
     22 CA         30.5319   27.7526    0.9515 C.3       4 UNK         0.0329 
     23 CB         31.1144   26.4125    0.4697 C.3       4 UNK        -0.2001 
     24 N          29.3938   28.1134    0.1188 N.am      4 UNK        -0.4303 
     25 C          29.4446   28.7200   -1.0716 C.2       3 UNK         0.5044 
     26 O          30.4847   29.1245   -1.5919 O.2       3 UNK        -0.5152 
     27 CA         28.0936   28.8852   -1.8036 C.3       3 UNK         0.0319 
     28 CB         28.2572   29.0689   -3.3276 C.3       3 UNK        -0.2001 
     29 N          27.1363   27.8058   -1.5072 N.am      3 UNK        -0.4354 
     30 C          27.3165   26.4919   -1.7188 C.2       2 UNK         0.4964 
     31 O          28.2994   26.0013   -2.2787 O.2       2 UNK        -0.5047 
     32 CA         26.2019   25.5633   -1.2111 C.3       2 UNK         0.0288 
     33 CB         25.2883   25.1325   -2.3701 C.3       2 UNK        -0.2113 
     34 N          26.7476   24.3716   -0.5569 N.am      2 UNK        -0.4145 
     35 C          27.4695   24.3711    0.5733 C.2       1 UNK         0.5006 
     36 O          27.7324   25.3852    1.2315 O.2       1 UNK        -0.5103 
     37 C          28.1371   26.9570    4.7196 C.2       5 UNK         0.5055 
     38 O          27.8609   27.5871    5.7415 O.2       5 UNK        -0.5220 
     39 N          27.2431   26.6996    3.7515 N.am      6 UNK        -0.4450 
     40 CA         25.8469   27.1582    3.7918 C.3       6 UNK         0.0367 
     41 CB         25.0361   26.4393    2.7045 C.3       6 UNK        -0.1929 
     42 C          25.6879   28.6844    3.6423 C.2       6 UNK         0.5070 
     43 O          24.6344   29.2147    3.9935 O.2       6 UNK        -0.5237 
     44 N          26.7280   29.3621    3.1398 N.am      7 UNK        -0.4739 
     45 CA         26.8077   30.8139    2.9780 C.3       7 UNK         0.0276 
     46 CB         27.2800   31.1173    1.5446 C.3       7 UNK        -0.1927 
     47 C          27.7241   31.4445    4.0462 C.2       7 UNK         0.5013 
     48 O          28.2980   32.5056    3.8010 O.2       7 UNK        -0.5193 
     49 N          27.8420   30.7829    5.2092 N.am      8 UNK        -0.4253 
     50 CA         28.6542   31.1571    6.3738 C.3       8 UNK         0.0242 
     51 CB         28.1770   32.4918    6.9875 C.3       8 UNK        -0.2000 
     52 C          30.1667   31.1245    6.0810 C.2       8 UNK         0.4948 
     53 O          30.8902   32.0503    6.4525 O.2       8 UNK        -0.5275 
     54 N          30.6048   30.0345    5.4349 N.am      9 UNK        -0.4246 
     55 CA         31.9839   29.7108    5.0507 C.3       9 UNK         0.0261 
     56 CB         32.8927   29.5518    6.2882 C.3       9 UNK        -0.1959 
     57 C          32.5455   30.6806    3.9971 C.2       9 UNK         0.5033 
     58 O          33.6749   31.1552    4.1275 O.2       9 UNK        -0.5390 
     59 N          31.7668   30.9178    2.9327 N.am      10 UNK        -0.4215 
     60 CA         32.1261   31.7542    1.7777 C.3       10 UNK         0.0240 
     61 CB         30.8334   32.2313    1.0918 C.3       10 UNK        -0.1982 
     62 C          33.0778   31.0544    0.7786 C.2       10 UNK         0.4970 
     63 O          32.9936   31.3068   -0.4241 O.2       10 UNK        -0.4916 
     64 N          33.9437   30.1711    1.2845 N.am      11 UNK        -0.4279 
     65 CA         34.8833   29.3348    0.5288 C.3       11 UNK         0.1003 
     66 C          35.9708   30.1613   -0.2098 C.2       11 UNK         0.5709 
     67 N          36.4077   29.7078   -1.3770 N.am      11 UNK        -0.7358 
     68 O          36.4517   31.1804    0.2835 O.2       11 UNK        -0.4999 
     69 C69        35.5330   28.2718    1.4523 C.3       12 UNK        -0.0954 
     70 S70        34.2897   27.2213    2.2777 S.3       12 UNK        -0.2268 
     71 C71        34.7920   25.5551    1.7315 C.3       12 UNK         0.0203 
     72 H72        26.4005   21.9253    5.1442 H         1 UNK         0.0888 
     73 H73        28.0537   22.5210    5.0263 H         1 UNK         0.0888 
     74 H74        26.7117   23.6628    5.1845 H         1 UNK         0.0888 
     75 H75        28.8787   22.8763    2.9436 H         1 UNK         0.3017 
     76 H76        27.3687   22.2238    0.6219 H         1 UNK         0.0873 
     77 H77        29.4557   22.8790   -0.6169 H         1 UNK         0.0745 
     78 H78        30.1122   23.5564    0.8544 H         1 UNK         0.0745 
     79 H79        32.4616   20.5461    0.9565 H         1 UNK         0.0705 
     80 H80        32.1502   21.7739   -0.2465 H         1 UNK         0.0705 
     81 H81        33.6202   23.5546    0.2861 H         1 UNK         0.1334 
     82 H82        33.8470   25.1426    4.2611 H         1 UNK         0.1417 
     83 H83        31.3900   21.7251    3.4603 H         1 UNK         0.1562 
     84 H84        32.9919   23.1951    6.0889 H         1 UNK         0.0748 
     85 H85        31.3946   22.6337    5.6568 H         1 UNK         0.0748 
     86 H86        29.0728   24.8084    5.8179 H         1 UNK         0.0940 
     87 H87        29.8195   24.3286    4.3221 H         1 UNK         0.0940 
     88 H88        30.1898   27.2173    5.0777 H         1 UNK         0.0703 
     89 H89        30.3872   25.7936    2.6605 H         1 UNK         0.3081 
     90 H90        31.3060   28.5178    0.8688 H         1 UNK         0.0719 
     91 H91        31.8376   26.0070    1.1728 H         1 UNK         0.0809 
     92 H92        30.3314   25.6739    0.3147 H         1 UNK         0.0809 
     93 H93        31.6319   26.5371   -0.4816 H         1 UNK         0.0809 
     94 H94        28.4928   27.8153    0.4654 H         1 UNK         0.2990 
     95 H95        27.6521   29.8019   -1.4101 H         1 UNK         0.0690 
     96 H96        27.2924   29.1978   -3.8179 H         1 UNK         0.0788 
     97 H97        28.7561   28.2149   -3.7868 H         1 UNK         0.0788 
     98 H98        28.8545   29.9531   -3.5534 H         1 UNK         0.0788 
     99 H99        26.2791   28.1025   -1.0609 H         1 UNK         0.2993 
    100 H100       25.5963   26.0991   -0.4795 H         1 UNK         0.0949 
    101 H101       24.4666   24.5084   -2.0179 H         1 UNK         0.0767 
    102 H102       24.8465   26.0000   -2.8626 H         1 UNK         0.0767 
    103 H103       25.8361   24.5715   -3.1288 H         1 UNK         0.0767 
    104 H104       26.6126   23.4984   -1.0450 H         1 UNK         0.3013 
    105 H105       27.5337   26.1992    2.9130 H         1 UNK         0.3121 
    106 H106       25.4304   26.8815    4.7628 H         1 UNK         0.0774 
    107 H107       25.3777   26.7165    1.7088 H         1 UNK         0.0815 
    108 H108       23.9786   26.6992    2.7692 H         1 UNK         0.0815 
    109 H109       25.1084   25.3569    2.7994 H         1 UNK         0.0815 
    110 H110       27.5867   28.8608    2.9440 H         1 UNK         0.2987 
    111 H111       25.8226   31.2664    3.1094 H         1 UNK         0.0949 
    112 H112       28.2571   30.6788    1.3483 H         1 UNK         0.0806 
    113 H113       26.5813   30.7201    0.8086 H         1 UNK         0.0806 
    114 H114       27.3570   32.1908    1.3676 H         1 UNK         0.0806 
    115 H115       27.3493   29.9026    5.2914 H         1 UNK         0.3010 
    116 H116       28.4803   30.3800    7.1202 H         1 UNK         0.0829 
    117 H117       28.3710   33.3371    6.3266 H         1 UNK         0.0813 
    118 H118       27.1087   32.4710    7.2021 H         1 UNK         0.0813 
    119 H119       28.6918   32.6934    7.9277 H         1 UNK         0.0813 
    120 H120       29.9020   29.3892    5.0996 H         1 UNK         0.3038 
    121 H121       31.9497   28.7365    4.5625 H         1 UNK         0.0769 
    122 H122       33.8800   29.1885    6.0001 H         1 UNK         0.0811 
    123 H123       33.0367   30.4964    6.8133 H         1 UNK         0.0811 
    124 H124       32.4781   28.8326    6.9944 H         1 UNK         0.0811 
    125 H125       30.8707   30.4410    2.8892 H         1 UNK         0.3204 
    126 H126       32.6510   32.6371    2.1480 H         1 UNK         0.0748 
    127 H127       31.0481   32.9776    0.3259 H         1 UNK         0.0771 
    128 H128       30.3166   31.4054    0.6028 H         1 UNK         0.0771 
    129 H129       30.1473   32.6907    1.8033 H         1 UNK         0.0771 
    130 H130       34.0027   30.0972    2.2912 H         1 UNK         0.2980 
    131 H131       34.2955   28.8108   -0.2278 H         1 UNK         0.0545 
    132 H132       36.0299   28.8672   -1.7855 H         1 UNK         0.3459 
    133 H133       37.1250   30.2220   -1.8640 H         1 UNK         0.3459 
    134 H134       36.2167   27.6398    0.8826 H         1 UNK         0.0616 
    135 H135       36.1355   28.7523    2.2254 H         1 UNK         0.0616 
    136 H136       34.8532   25.5489    0.6421 H         1 UNK         0.0634 
    137 H137       35.7931   25.3399    2.1072 H         1 UNK         0.0634 
@<TRIPOS>BOND
     1    1    2 1    
     2    1   72 1    
     3    1   73 1    
     4    1   74 1    
     5    2    3 2    
     6    2    4 am   BACKBONE|DICT|INTERRES
     7    4    5 1    
     8    4   75 1    
     9    5    6 1    
    10    5   35 1    
    11    5   76 1    
    12    6    7 1    
    13    6   77 1    
    14    6   78 1    
    15    7    8 1    
    16    8    9 1    
    17    8   79 1    
    18    8   80 1    
    19    9   10 ar   
    20    9   14 ar   
    21   10   11 ar   
    22   10   81 1    
    23   11   12 ar   
    24   11   71 1    
    25   12   13 ar   
    26   12   82 1    
    27   13   14 ar   
    28   13   15 1    
    29   14   83 1    
    30   15   16 1    
    31   15   84 1    
    32   15   85 1    
    33   16   17 1    
    34   17   18 1    
    35   17   86 1    
    36   17   87 1    
    37   18   19 1    
    38   18   37 1    
    39   18   88 1    
    40   19   20 am   BACKBONE|DICT|INTERRES
    41   19   89 1    
    42   20   21 2    
    43   20   22 1    
    44   22   23 1    
    45   22   24 1    
    46   22   90 1    
    47   23   91 1    
    48   23   92 1    
    49   23   93 1    
    50   24   25 am   BACKBONE|DICT|INTERRES
    51   24   94 1    
    52   25   26 2    
    53   25   27 1    
    54   27   28 1    
    55   27   29 1    
    56   27   95 1    
    57   28   96 1    
    58   28   97 1    
    59   28   98 1    
    60   29   30 am   BACKBONE|DICT|INTERRES
    61   29   99 1    
    62   30   31 2    
    63   30   32 1    
    64   32   33 1    
    65   32   34 1    
    66   32  100 1    
    67   33  101 1    
    68   33  102 1    
    69   33  103 1    
    70   34   35 am   BACKBONE|DICT|INTERRES
    71   34  104 1    
    72   35   36 2    
    73   37   38 2    
    74   37   39 am   BACKBONE|DICT|INTERRES
    75   39   40 1    
    76   39  105 1    
    77   40   41 1    
    78   40   42 1    
    79   40  106 1    
    80   41  107 1    
    81   41  108 1    
    82   41  109 1    
    83   42   43 2    
    84   42   44 am   BACKBONE|DICT|INTERRES
    85   44   45 1    
    86   44  110 1    
    87   45   46 1    
    88   45   47 1    
    89   45  111 1    
    90   46  112 1    
    91   46  113 1    
    92   46  114 1    
    93   47   48 2    
    94   47   49 am   BACKBONE|DICT|INTERRES
    95   49   50 1    
    96   49  115 1    
    97   50   51 1    
    98   50   52 1    
    99   50  116 1    
   100   51  117 1    
   101   51  118 1    
   102   51  119 1    
   103   52   53 2    
   104   52   54 am   BACKBONE|DICT|INTERRES
   105   54   55 1    
   106   54  120 1    
   107   55   56 1    
   108   55   57 1    
   109   55  121 1    
   110   56  122 1    
   111   56  123 1    
   112   56  124 1    
   113   57   58 2    
   114   57   59 am   BACKBONE|DICT|INTERRES
   115   59   60 1    
   116   59  125 1    
   117   60   61 1    
   118   60   62 1    
   119   60  126 1    
   120   61  127 1    
   121   61  128 1    
   122   61  129 1    
   123   62   63 2    
   124   62   64 am   BACKBONE|DICT|INTERRES
   125   64   65 1    
   126   64  130 1    
   127   65   66 1    
   128   65   69 1    
   129   65  131 1    
   130   66   67 am   BACKBONE|DICT|INTERRES
   131   66   68 2    
   132   67  132 1    
   133   67  133 1    
   134   69   70 1    
   135   69  134 1    
   136   69  135 1    
   137   70   71 1    
   138   71  136 1    
   139   71  137 1    
@<TRIPOS>SUBSTRUCTURE
     1 UNK         1 GROUP             0       ****    0 ROOT    
