@<TRIPOS>MOLECULE
3R136
137   139    1
SMALL
USER_CHARGES


@<TRIPOS>ATOM
      1 CA         26.5144   21.9666    3.3796 C.3       0 UNK        -0.1979 
      2 C          27.1703   21.3603    2.1484 C.2       0 UNK         0.4864 
      3 O          26.4748   20.7932    1.3044 O.2       0 UNK        -0.5359 
      4 N          28.5027   21.4612    2.0443 N.am      1 UNK        -0.4318 
      5 CA         29.2981   20.8755    0.9552 C.3       1 UNK         0.0824 
      6 C6         30.8007   20.7263    1.3169 C.3       12 UNK        -0.0944 
      7 S7         31.0834   19.9610    2.9558 S.3       12 UNK        -0.2672 
      8 C8         32.4907   20.9178    3.6262 C.3       12 UNK         0.0333 
      9 C9         32.2740   22.4254    3.5636 C.ar      12 UNK        -0.0807 
     10 C10        33.1587   23.2301    2.8366 C.ar      12 UNK        -0.0894 
     11 C11        32.9297   24.6035    2.7077 C.ar      12 UNK        -0.0804 
     12 C12        31.8036   25.1690    3.3113 C.ar      12 UNK        -0.0824 
     13 C13        30.9244   24.3784    4.0565 C.ar      12 UNK        -0.0762 
     14 C14        31.1712   23.0101    4.1937 C.ar      12 UNK        -0.0782 
     15 C15        29.6765   24.9979    4.6559 C.3       12 UNK         0.0230 
     16 S16        28.3507   24.9596    3.4181 S.3       12 UNK        -0.2608 
     17 C17        27.2779   26.3357    3.9419 C.3       12 UNK        -0.0989 
     18 CA         27.8716   27.7307    3.6211 C.3       5 UNK         0.0716 
     19 N          28.4217   27.8242    2.2654 N.am      5 UNK        -0.4135 
     20 C          29.1583   28.8424    1.7994 C.2       4 UNK         0.5031 
     21 O          29.4737   29.8230    2.4763 O.2       4 UNK        -0.5229 
     22 CA         29.6220   28.7691    0.3353 C.3       4 UNK         0.0329 
     23 CB         31.0236   28.1391    0.2768 C.3       4 UNK        -0.2001 
     24 N          28.7347   28.0213   -0.5619 N.am      4 UNK        -0.4303 
     25 C          27.4086   28.1707   -0.7104 C.2       3 UNK         0.5044 
     26 O          26.7397   29.0088   -0.1052 O.2       3 UNK        -0.5152 
     27 CA         26.6989   27.1840   -1.6603 C.3       3 UNK         0.0319 
     28 CB         26.3922   27.8629   -3.0045 C.3       3 UNK        -0.2001 
     29 N          27.4467   25.9415   -1.9038 N.am      3 UNK        -0.4354 
     30 C          27.7614   25.0410   -0.9613 C.2       2 UNK         0.4964 
     31 O          27.4191   25.1429    0.2189 O.2       2 UNK        -0.5047 
     32 CA         28.6541   23.8735   -1.4013 C.3       2 UNK         0.0288 
     33 CB         30.0494   24.3720   -1.8330 C.3       2 UNK        -0.2113 
     34 N          28.7934   22.9424   -0.2864 N.am      2 UNK        -0.4145 
     35 C          29.1524   21.6551   -0.3701 C.2       1 UNK         0.5006 
     36 O          29.3864   21.0809   -1.4355 O.2       1 UNK        -0.5103 
     37 C          26.8464   28.8419    3.9236 C.2       5 UNK         0.5055 
     38 O          26.7904   29.3080    5.0621 O.2       5 UNK        -0.5220 
     39 N          26.0973   29.2895    2.9023 N.am      6 UNK        -0.4450 
     40 CA         25.1422   30.3995    3.0017 C.3       6 UNK         0.0367 
     41 CB         24.2446   30.4160    1.7542 C.3       6 UNK        -0.1929 
     42 C          25.8234   31.7675    3.1939 C.2       6 UNK         0.5070 
     43 O          25.1891   32.6916    3.7018 O.2       6 UNK        -0.5237 
     44 N          27.1047   31.8628    2.8168 N.am      7 UNK        -0.4739 
     45 CA         27.9727   33.0235    3.0139 C.3       7 UNK         0.0276 
     46 CB         28.7631   33.2604    1.7155 C.3       7 UNK        -0.1927 
     47 C          28.8948   32.8424    4.2379 C.2       7 UNK         0.5013 
     48 O          29.9474   33.4781    4.2988 O.2       7 UNK        -0.5193 
     49 N          28.4853   31.9853    5.1879 N.am      8 UNK        -0.4253 
     50 CA         29.1714   31.6371    6.4386 C.3       8 UNK         0.0242 
     51 CB         29.2943   32.8632    7.3698 C.3       8 UNK        -0.2000 
     52 C          30.5099   30.9098    6.2063 C.2       8 UNK         0.4948 
     53 O          31.5025   31.2174    6.8686 O.2       8 UNK        -0.5275 
     54 N          30.4899   29.9442    5.2758 N.am      9 UNK        -0.4246 
     55 CA         31.6028   29.0946    4.8374 C.3       9 UNK         0.0261 
     56 CB         32.1399   28.2148    5.9862 C.3       9 UNK        -0.1959 
     57 C          32.6937   29.9077    4.1220 C.2       9 UNK         0.5033 
     58 O          33.8688   29.8456    4.4909 O.2       9 UNK        -0.5390 
     59 N          32.2834   30.6482    3.0839 N.am      10 UNK        -0.4215 
     60 CA         33.1653   31.4226    2.2053 C.3       10 UNK         0.0240 
     61 CB         32.3500   32.5428    1.5357 C.3       10 UNK        -0.1982 
     62 C          33.8638   30.5103    1.1778 C.2       10 UNK         0.4970 
     63 O          33.6147   30.6285   -0.0230 O.2       10 UNK        -0.4916 
     64 N          34.6884   29.5814    1.6751 N.am      11 UNK        -0.4279 
     65 CA         35.3692   28.5417    0.8853 C.3       11 UNK         0.1003 
     66 C          36.4710   29.0600   -0.0855 C.2       11 UNK         0.5709 
     67 N          36.9550   30.2892    0.0496 N.am      11 UNK        -0.7358 
     68 O          36.8914   28.3307   -0.9806 O.2       11 UNK        -0.4999 
     69 C69        35.9281   27.4024    1.7797 C.3       12 UNK        -0.0954 
     70 S70        34.7110   26.7019    2.9437 S.3       12 UNK        -0.2268 
     71 C71        33.8801   25.4713    1.8949 C.3       12 UNK         0.0203 
     72 H72        25.7985   21.2666    3.8095 H         1 UNK         0.0888 
     73 H73        27.2464   22.2115    4.1490 H         1 UNK         0.0888 
     74 H74        25.9818   22.8783    3.1098 H         1 UNK         0.0888 
     75 H75        29.0297   21.9368    2.7626 H         1 UNK         0.3017 
     76 H76        28.9075   19.8718    0.7727 H         1 UNK         0.0873 
     77 H77        31.3042   20.1077    0.5715 H         1 UNK         0.0745 
     78 H78        31.2927   21.6980    1.2700 H         1 UNK         0.0745 
     79 H79        32.6558   20.6243    4.6637 H         1 UNK         0.0705 
     80 H80        33.3917   20.6339    3.0801 H         1 UNK         0.0705 
     81 H81        34.0159   22.7831    2.3516 H         1 UNK         0.1334 
     82 H82        31.6079   26.2250    3.1908 H         1 UNK         0.1417 
     83 H83        30.4841   22.3912    4.7549 H         1 UNK         0.1562 
     84 H84        29.8866   26.0214    4.9663 H         1 UNK         0.0748 
     85 H85        29.3611   24.4580    5.5500 H         1 UNK         0.0748 
     86 H86        27.0731   26.2394    5.0101 H         1 UNK         0.0940 
     87 H87        26.3195   26.2024    3.4354 H         1 UNK         0.0940 
     88 H88        28.7057   27.8928    4.3043 H         1 UNK         0.0703 
     89 H89        28.2231   27.0425    1.6537 H         1 UNK         0.3081 
     90 H90        29.6811   29.7940   -0.0361 H         1 UNK         0.0719 
     91 H91        30.9998   27.0769    0.5245 H         1 UNK         0.0809 
     92 H92        31.4672   28.2452   -0.7134 H         1 UNK         0.0809 
     93 H93        31.7017   28.6160    0.9836 H         1 UNK         0.0809 
     94 H94        29.1748   27.3046   -1.1188 H         1 UNK         0.2990 
     95 H95        25.7512   26.9130   -1.1900 H         1 UNK         0.0690 
     96 H96        25.8073   27.2118   -3.6545 H         1 UNK         0.0788 
     97 H97        27.3041   28.1390   -3.5356 H         1 UNK         0.0788 
     98 H98        25.8120   28.7753   -2.8575 H         1 UNK         0.0788 
     99 H99        27.7631   25.7853   -2.8506 H         1 UNK         0.2993 
    100 H100       28.1635   23.3655   -2.2344 H         1 UNK         0.0949 
    101 H101       30.6865   23.5452   -2.1478 H         1 UNK         0.0767 
    102 H102       29.9877   25.0605   -2.6763 H         1 UNK         0.0767 
    103 H103       30.5595   24.8905   -1.0199 H         1 UNK         0.0767 
    104 H104       28.5449   23.3344    0.6146 H         1 UNK         0.3013 
    105 H105       26.2469   28.9075    1.9741 H         1 UNK         0.3121 
    106 H106       24.5096   30.2235    3.8744 H         1 UNK         0.0774 
    107 H107       24.8155   30.6227    0.8483 H         1 UNK         0.0815 
    108 H108       23.4781   31.1877    1.8371 H         1 UNK         0.0815 
    109 H109       23.7318   29.4637    1.6189 H         1 UNK         0.0815 
    110 H110       27.5574   31.0397    2.4397 H         1 UNK         0.2987 
    111 H111       27.3709   33.9141    3.2073 H         1 UNK         0.0949 
    112 H112       29.3661   32.3916    1.4555 H         1 UNK         0.0806 
    113 H113       28.0938   33.4616    0.8789 H         1 UNK         0.0806 
    114 H114       29.4325   34.1170    1.8038 H         1 UNK         0.0806 
    115 H115       27.6166   31.4919    5.0239 H         1 UNK         0.3010 
    116 H116       28.5258   30.9148    6.9411 H         1 UNK         0.0829 
    117 H117       29.9756   33.6135    6.9675 H         1 UNK         0.0813 
    118 H118       28.3269   33.3389    7.5301 H         1 UNK         0.0813 
    119 H119       29.6770   32.5718    8.3487 H         1 UNK         0.0813 
    120 H120       29.6446   29.8561    4.7274 H         1 UNK         0.3038 
    121 H121       31.1935   28.4175    4.0878 H         1 UNK         0.0769 
    122 H122       32.8787   27.5035    5.6140 H         1 UNK         0.0811 
    123 H123       32.6259   28.8072    6.7619 H         1 UNK         0.0811 
    124 H124       31.3417   27.6386    6.4535 H         1 UNK         0.0811 
    125 H125       31.2992   30.6147    2.8354 H         1 UNK         0.3204 
    126 H126       33.9422   31.8945    2.8106 H         1 UNK         0.0748 
    127 H127       32.9929   33.1845    0.9319 H         1 UNK         0.0771 
    128 H128       31.5814   32.1407    0.8754 H         1 UNK         0.0771 
    129 H129       31.8639   33.1777    2.2767 H         1 UNK         0.0771 
    130 H130       34.7921   29.5246    2.6829 H         1 UNK         0.2980 
    131 H131       34.6051   28.0971    0.2448 H         1 UNK         0.0545 
    132 H132       37.6653   30.6133   -0.5875 H         1 UNK         0.3459 
    133 H133       36.6169   30.8936    0.7807 H         1 UNK         0.3459 
    134 H134       36.3293   26.5926    1.1675 H         1 UNK         0.0616 
    135 H135       36.7659   27.7731    2.3730 H         1 UNK         0.0616 
    136 H136       34.6316   24.8560    1.3980 H         1 UNK         0.0634 
    137 H137       33.3236   25.9830    1.1086 H         1 UNK         0.0634 
@<TRIPOS>BOND
     1    1    2 1    
     2    1   72 1    
     3    1   73 1    
     4    1   74 1    
     5    2    3 2    
     6    2    4 am   BACKBONE|DICT|INTERRES
     7    4    5 1    
     8    4   75 1    
     9    5    6 1    
    10    5   35 1    
    11    5   76 1    
    12    6    7 1    
    13    6   77 1    
    14    6   78 1    
    15    7    8 1    
    16    8    9 1    
    17    8   79 1    
    18    8   80 1    
    19    9   10 ar   
    20    9   14 ar   
    21   10   11 ar   
    22   10   81 1    
    23   11   12 ar   
    24   11   71 1    
    25   12   13 ar   
    26   12   82 1    
    27   13   14 ar   
    28   13   15 1    
    29   14   83 1    
    30   15   16 1    
    31   15   84 1    
    32   15   85 1    
    33   16   17 1    
    34   17   18 1    
    35   17   86 1    
    36   17   87 1    
    37   18   19 1    
    38   18   37 1    
    39   18   88 1    
    40   19   20 am   BACKBONE|DICT|INTERRES
    41   19   89 1    
    42   20   21 2    
    43   20   22 1    
    44   22   23 1    
    45   22   24 1    
    46   22   90 1    
    47   23   91 1    
    48   23   92 1    
    49   23   93 1    
    50   24   25 am   BACKBONE|DICT|INTERRES
    51   24   94 1    
    52   25   26 2    
    53   25   27 1    
    54   27   28 1    
    55   27   29 1    
    56   27   95 1    
    57   28   96 1    
    58   28   97 1    
    59   28   98 1    
    60   29   30 am   BACKBONE|DICT|INTERRES
    61   29   99 1    
    62   30   31 2    
    63   30   32 1    
    64   32   33 1    
    65   32   34 1    
    66   32  100 1    
    67   33  101 1    
    68   33  102 1    
    69   33  103 1    
    70   34   35 am   BACKBONE|DICT|INTERRES
    71   34  104 1    
    72   35   36 2    
    73   37   38 2    
    74   37   39 am   BACKBONE|DICT|INTERRES
    75   39   40 1    
    76   39  105 1    
    77   40   41 1    
    78   40   42 1    
    79   40  106 1    
    80   41  107 1    
    81   41  108 1    
    82   41  109 1    
    83   42   43 2    
    84   42   44 am   BACKBONE|DICT|INTERRES
    85   44   45 1    
    86   44  110 1    
    87   45   46 1    
    88   45   47 1    
    89   45  111 1    
    90   46  112 1    
    91   46  113 1    
    92   46  114 1    
    93   47   48 2    
    94   47   49 am   BACKBONE|DICT|INTERRES
    95   49   50 1    
    96   49  115 1    
    97   50   51 1    
    98   50   52 1    
    99   50  116 1    
   100   51  117 1    
   101   51  118 1    
   102   51  119 1    
   103   52   53 2    
   104   52   54 am   BACKBONE|DICT|INTERRES
   105   54   55 1    
   106   54  120 1    
   107   55   56 1    
   108   55   57 1    
   109   55  121 1    
   110   56  122 1    
   111   56  123 1    
   112   56  124 1    
   113   57   58 2    
   114   57   59 am   BACKBONE|DICT|INTERRES
   115   59   60 1    
   116   59  125 1    
   117   60   61 1    
   118   60   62 1    
   119   60  126 1    
   120   61  127 1    
   121   61  128 1    
   122   61  129 1    
   123   62   63 2    
   124   62   64 am   BACKBONE|DICT|INTERRES
   125   64   65 1    
   126   64  130 1    
   127   65   66 1    
   128   65   69 1    
   129   65  131 1    
   130   66   67 am   BACKBONE|DICT|INTERRES
   131   66   68 2    
   132   67  132 1    
   133   67  133 1    
   134   69   70 1    
   135   69  134 1    
   136   69  135 1    
   137   70   71 1    
   138   71  136 1    
   139   71  137 1    
@<TRIPOS>SUBSTRUCTURE
     1 UNK         1 GROUP             0       ****    0 ROOT    
