@<TRIPOS>MOLECULE
3R136
137   139    1
SMALL
USER_CHARGES


@<TRIPOS>ATOM
      1 CA         32.7479   26.0045    0.9974 C.3       0 UNK        -0.1979 
      2 C          31.3318   25.4488    1.0114 C.2       0 UNK         0.4864 
      3 O          30.3858   26.1939    1.2653 O.2       0 UNK        -0.5359 
      4 N          31.1794   24.1452    0.7418 N.am      1 UNK        -0.4318 
      5 CA         29.8899   23.4424    0.7337 C.3       1 UNK         0.0824 
      6 C6         30.0367   21.8981    0.6706 C.3       12 UNK        -0.0944 
      7 S7         31.3250   21.2256    1.7762 S.3       12 UNK        -0.2672 
      8 C8         30.3985   20.9253    3.3139 C.3       12 UNK         0.0333 
      9 C9         30.0139   22.2144    4.0296 C.ar      12 UNK        -0.0807 
     10 C10        31.0002   23.1184    4.4416 C.ar      12 UNK        -0.0894 
     11 C11        30.6523   24.2805    5.1366 C.ar      12 UNK        -0.0804 
     12 C12        29.3090   24.5323    5.4261 C.ar      12 UNK        -0.0824 
     13 C13        28.3142   23.6417    5.0148 C.ar      12 UNK        -0.0762 
     14 C14        28.6717   22.4857    4.3144 C.ar      12 UNK        -0.0782 
     15 C15        26.8565   23.9073    5.3585 C.3       12 UNK         0.0230 
     16 S16        25.9368   24.5998    3.9504 S.3       12 UNK        -0.2608 
     17 C17        26.5538   26.3187    3.8890 C.3       12 UNK        -0.0989 
     18 CA         26.9594   26.7489    2.4572 C.3       5 UNK         0.0716 
     19 N          25.8398   26.5887    1.5221 N.am      5 UNK        -0.4135 
     20 C          25.8320   26.8854    0.2175 C.2       4 UNK         0.5031 
     21 O          26.7378   27.4729   -0.3803 O.2       4 UNK        -0.5229 
     22 CA         24.6004   26.4294   -0.5725 C.3       4 UNK         0.0329 
     23 CB         23.5476   27.5467   -0.6746 C.3       4 UNK        -0.2001 
     24 N          25.0742   26.0566   -1.8980 N.am      4 UNK        -0.4303 
     25 C          24.5301   25.1596   -2.7269 C.2       3 UNK         0.5044 
     26 O          23.4590   24.5890   -2.5174 O.2       3 UNK        -0.5152 
     27 CA         25.3274   24.8356   -4.0050 C.3       3 UNK         0.0319 
     28 CB         24.8604   25.7223   -5.1708 C.3       3 UNK        -0.2001 
     29 N          26.7696   25.0145   -3.8064 N.am      3 UNK        -0.4354 
     30 C          27.5667   24.1277   -3.1932 C.2       2 UNK         0.4964 
     31 O          27.2152   22.9798   -2.9114 O.2       2 UNK        -0.5047 
     32 CA         29.0021   24.5933   -2.8573 C.3       2 UNK         0.0288 
     33 CB         29.1694   26.1293   -2.8209 C.3       2 UNK        -0.2113 
     34 N          29.5485   24.0234   -1.6170 N.am      2 UNK        -0.4145 
     35 C          28.9768   23.9518   -0.4006 C.2       1 UNK         0.5006 
     36 O          27.8207   24.2851   -0.1407 O.2       1 UNK        -0.5103 
     37 C          27.5215   28.1850    2.4650 C.2       5 UNK         0.5055 
     38 O          26.8213   29.1106    2.8844 O.2       5 UNK        -0.5220 
     39 N          28.7746   28.3466    2.0258 N.am      6 UNK        -0.4450 
     40 CA         29.4877   29.6211    1.9447 C.3       6 UNK         0.0367 
     41 CB         30.5049   29.5382    0.7950 C.3       6 UNK        -0.1929 
     42 C          30.1366   29.9759    3.2937 C.2       6 UNK         0.5070 
     43 O          31.3611   30.1210    3.3782 O.2       6 UNK        -0.5237 
     44 N          29.2905   30.0994    4.3264 N.am      7 UNK        -0.4739 
     45 CA         29.6369   30.4540    5.7047 C.3       7 UNK         0.0276 
     46 CB         28.3516   30.5285    6.5442 C.3       7 UNK        -0.1927 
     47 C          30.4116   31.7797    5.7659 C.2       7 UNK         0.5013 
     48 O          29.8994   32.7950    5.2904 O.2       7 UNK        -0.5193 
     49 N          31.6507   31.7277    6.2751 N.am      8 UNK        -0.4253 
     50 CA         32.6689   32.7909    6.3279 C.3       8 UNK         0.0242 
     51 CB         32.1851   33.9953    7.1600 C.3       8 UNK        -0.2000 
     52 C          33.2129   33.2483    4.9571 C.2       8 UNK         0.4948 
     53 O          34.3724   33.6569    4.8859 O.2       8 UNK        -0.5275 
     54 N          32.3909   33.1778    3.9019 N.am      9 UNK        -0.4246 
     55 CA         32.7309   33.5240    2.5214 C.3       9 UNK         0.0261 
     56 CB         31.4496   33.5595    1.6732 C.3       9 UNK        -0.1959 
     57 C          33.7790   32.5859    1.8992 C.2       9 UNK         0.5033 
     58 O          34.6542   33.0684    1.1780 O.2       9 UNK        -0.5390 
     59 N          33.6890   31.2828    2.1971 N.am      10 UNK        -0.4215 
     60 CA         34.6809   30.2782    1.8021 C.3       10 UNK         0.0240 
     61 CB         34.2678   29.5898    0.4914 C.3       10 UNK        -0.1982 
     62 C          34.9546   29.2534    2.9118 C.2       10 UNK         0.4970 
     63 O          36.0785   28.7533    2.9775 O.2       10 UNK        -0.4916 
     64 N          33.9659   28.9616    3.7705 N.am      11 UNK        -0.4279 
     65 CA         34.1506   28.1494    4.9835 C.3       11 UNK         0.1003 
     66 C          35.1068   28.8382    5.9963 C.2       11 UNK         0.5709 
     67 N          36.0442   28.0999    6.5744 N.am      11 UNK        -0.7358 
     68 O          34.9688   30.0231    6.2945 O.2       11 UNK        -0.4999 
     69 C69        32.8015   27.8356    5.6735 C.3       12 UNK        -0.0954 
     70 S70        31.6932   26.8007    4.6631 S.3       12 UNK        -0.2268 
     71 C71        31.7207   25.2506    5.6144 C.3       12 UNK         0.0203 
     72 H72        32.9070   26.5956    0.0963 H         1 UNK         0.0888 
     73 H73        32.9089   26.6481    1.8619 H         1 UNK         0.0888 
     74 H74        33.4947   25.2115    1.0246 H         1 UNK         0.0888 
     75 H75        31.9910   23.5682    0.5734 H         1 UNK         0.3017 
     76 H76        29.3934   23.6905    1.6745 H         1 UNK         0.0873 
     77 H77        29.0822   21.4195    0.8977 H         1 UNK         0.0745 
     78 H78        30.2975   21.5768   -0.3396 H         1 UNK         0.0745 
     79 H79        31.0201   20.3291    3.9832 H         1 UNK         0.0705 
     80 H80        29.5200   20.3177    3.0913 H         1 UNK         0.0705 
     81 H81        32.0393   22.9103    4.2259 H         1 UNK         0.1334 
     82 H82        29.0437   25.4231    5.9788 H         1 UNK         0.1417 
     83 H83        27.9018   21.7919    4.0046 H         1 UNK         0.1562 
     84 H84        26.7732   24.5780    6.2153 H         1 UNK         0.0748 
     85 H85        26.3809   22.9730    5.6607 H         1 UNK         0.0748 
     86 H86        27.4005   26.4305    4.5669 H         1 UNK         0.0940 
     87 H87        25.7705   26.9714    4.2803 H         1 UNK         0.0940 
     88 H88        27.7494   26.0759    2.1161 H         1 UNK         0.0703 
     89 H89        25.0377   26.1131    1.9077 H         1 UNK         0.3081 
     90 H90        24.1661   25.5530   -0.0861 H         1 UNK         0.0719 
     91 H91        23.1945   27.8418    0.3141 H         1 UNK         0.0809 
     92 H92        23.9528   28.4371   -1.1573 H         1 UNK         0.0809 
     93 H93        22.6783   27.2219   -1.2466 H         1 UNK         0.0809 
     94 H94        25.9825   26.4460   -2.1170 H         1 UNK         0.2990 
     95 H95        25.1295   23.7942   -4.2684 H         1 UNK         0.0690 
     96 H96        25.0284   26.7810   -4.9687 H         1 UNK         0.0788 
     97 H97        23.7931   25.5914   -5.3553 H         1 UNK         0.0788 
     98 H98        25.3809   25.4692   -6.0947 H         1 UNK         0.0788 
     99 H99        27.1530   25.9183   -4.0435 H         1 UNK         0.2993 
    100 H100       29.6287   24.2123   -3.6652 H         1 UNK         0.0949 
    101 H101       28.5294   26.5857   -2.0661 H         1 UNK         0.0767 
    102 H102       30.1969   26.4042   -2.5811 H         1 UNK         0.0767 
    103 H103       28.9416   26.5889   -3.7832 H         1 UNK         0.0767 
    104 H104       30.4972   23.6853   -1.6902 H         1 UNK         0.3013 
    105 H105       29.3066   27.5234    1.7342 H         1 UNK         0.3121 
    106 H106       28.7809   30.4181    1.7043 H         1 UNK         0.0774 
    107 H107       31.0862   30.4553    0.7015 H         1 UNK         0.0815 
    108 H108       31.2016   28.7176    0.9546 H         1 UNK         0.0815 
    109 H109       30.0073   29.3685   -0.1599 H         1 UNK         0.0815 
    110 H110       28.3060   29.9610    4.1280 H         1 UNK         0.2987 
    111 H111       30.2526   29.6507    6.1080 H         1 UNK         0.0949 
    112 H112       27.8227   29.5751    6.5469 H         1 UNK         0.0806 
    113 H113       28.5771   30.7766    7.5823 H         1 UNK         0.0806 
    114 H114       27.6675   31.2905    6.1680 H         1 UNK         0.0806 
    115 H115       31.9803   30.8307    6.6026 H         1 UNK         0.3010 
    116 H116       33.5171   32.3516    6.8558 H         1 UNK         0.0829 
    117 H117       31.8613   33.6868    8.1539 H         1 UNK         0.0813 
    118 H118       32.9878   34.7221    7.2920 H         1 UNK         0.0813 
    119 H119       31.3552   34.5166    6.6824 H         1 UNK         0.0813 
    120 H120       31.4353   32.8883    4.0848 H         1 UNK         0.3038 
    121 H121       33.1582   34.5290    2.5302 H         1 UNK         0.0769 
    122 H122       30.7618   34.3263    2.0304 H         1 UNK         0.0811 
    123 H123       31.6753   33.7877    0.6305 H         1 UNK         0.0811 
    124 H124       30.9231   32.6059    1.6943 H         1 UNK         0.0811 
    125 H125       32.9042   30.9679    2.7636 H         1 UNK         0.3204 
    126 H126       35.6349   30.7800    1.6249 H         1 UNK         0.0748 
    127 H127       34.0940   30.3153   -0.3034 H         1 UNK         0.0771 
    128 H128       35.0489   28.9108    0.1471 H         1 UNK         0.0771 
    129 H129       33.3626   29.0014    0.6157 H         1 UNK         0.0771 
    130 H130       33.0394   29.3584    3.6460 H         1 UNK         0.2980 
    131 H131       34.6010   27.2029    4.6774 H         1 UNK         0.0545 
    132 H132       36.1588   27.1254    6.3432 H         1 UNK         0.3459 
    133 H133       36.6596   28.5307    7.2464 H         1 UNK         0.3459 
    134 H134       32.9694   27.3402    6.6316 H         1 UNK         0.0616 
    135 H135       32.2822   28.7630    5.9070 H         1 UNK         0.0616 
    136 H136       31.5509   25.4661    6.6703 H         1 UNK         0.0634 
    137 H137       32.7140   24.8050    5.5420 H         1 UNK         0.0634 
@<TRIPOS>BOND
     1    1    2 1    
     2    1   72 1    
     3    1   73 1    
     4    1   74 1    
     5    2    3 2    
     6    2    4 am   BACKBONE|DICT|INTERRES
     7    4    5 1    
     8    4   75 1    
     9    5    6 1    
    10    5   35 1    
    11    5   76 1    
    12    6    7 1    
    13    6   77 1    
    14    6   78 1    
    15    7    8 1    
    16    8    9 1    
    17    8   79 1    
    18    8   80 1    
    19    9   10 ar   
    20    9   14 ar   
    21   10   11 ar   
    22   10   81 1    
    23   11   12 ar   
    24   11   71 1    
    25   12   13 ar   
    26   12   82 1    
    27   13   14 ar   
    28   13   15 1    
    29   14   83 1    
    30   15   16 1    
    31   15   84 1    
    32   15   85 1    
    33   16   17 1    
    34   17   18 1    
    35   17   86 1    
    36   17   87 1    
    37   18   19 1    
    38   18   37 1    
    39   18   88 1    
    40   19   20 am   BACKBONE|DICT|INTERRES
    41   19   89 1    
    42   20   21 2    
    43   20   22 1    
    44   22   23 1    
    45   22   24 1    
    46   22   90 1    
    47   23   91 1    
    48   23   92 1    
    49   23   93 1    
    50   24   25 am   BACKBONE|DICT|INTERRES
    51   24   94 1    
    52   25   26 2    
    53   25   27 1    
    54   27   28 1    
    55   27   29 1    
    56   27   95 1    
    57   28   96 1    
    58   28   97 1    
    59   28   98 1    
    60   29   30 am   BACKBONE|DICT|INTERRES
    61   29   99 1    
    62   30   31 2    
    63   30   32 1    
    64   32   33 1    
    65   32   34 1    
    66   32  100 1    
    67   33  101 1    
    68   33  102 1    
    69   33  103 1    
    70   34   35 am   BACKBONE|DICT|INTERRES
    71   34  104 1    
    72   35   36 2    
    73   37   38 2    
    74   37   39 am   BACKBONE|DICT|INTERRES
    75   39   40 1    
    76   39  105 1    
    77   40   41 1    
    78   40   42 1    
    79   40  106 1    
    80   41  107 1    
    81   41  108 1    
    82   41  109 1    
    83   42   43 2    
    84   42   44 am   BACKBONE|DICT|INTERRES
    85   44   45 1    
    86   44  110 1    
    87   45   46 1    
    88   45   47 1    
    89   45  111 1    
    90   46  112 1    
    91   46  113 1    
    92   46  114 1    
    93   47   48 2    
    94   47   49 am   BACKBONE|DICT|INTERRES
    95   49   50 1    
    96   49  115 1    
    97   50   51 1    
    98   50   52 1    
    99   50  116 1    
   100   51  117 1    
   101   51  118 1    
   102   51  119 1    
   103   52   53 2    
   104   52   54 am   BACKBONE|DICT|INTERRES
   105   54   55 1    
   106   54  120 1    
   107   55   56 1    
   108   55   57 1    
   109   55  121 1    
   110   56  122 1    
   111   56  123 1    
   112   56  124 1    
   113   57   58 2    
   114   57   59 am   BACKBONE|DICT|INTERRES
   115   59   60 1    
   116   59  125 1    
   117   60   61 1    
   118   60   62 1    
   119   60  126 1    
   120   61  127 1    
   121   61  128 1    
   122   61  129 1    
   123   62   63 2    
   124   62   64 am   BACKBONE|DICT|INTERRES
   125   64   65 1    
   126   64  130 1    
   127   65   66 1    
   128   65   69 1    
   129   65  131 1    
   130   66   67 am   BACKBONE|DICT|INTERRES
   131   66   68 2    
   132   67  132 1    
   133   67  133 1    
   134   69   70 1    
   135   69  134 1    
   136   69  135 1    
   137   70   71 1    
   138   71  136 1    
   139   71  137 1    
@<TRIPOS>SUBSTRUCTURE
     1 UNK         1 GROUP             0       ****    0 ROOT    
