@<TRIPOS>MOLECULE
3R136
137   139    1
SMALL
USER_CHARGES


@<TRIPOS>ATOM
      1 CA         29.3099   29.1923   -0.6797 C.3       0 UNK        -0.1979 
      2 C          29.8648   27.7924   -0.8933 C.2       0 UNK         0.4864 
      3 O          30.2928   27.4626   -2.0005 O.2       0 UNK        -0.5359 
      4 N          29.8626   26.9705    0.1641 N.am      1 UNK        -0.4318 
      5 CA         30.3503   25.5903    0.2259 C.3       1 UNK         0.0824 
      6 C6         31.8544   25.4434   -0.1545 C.3       12 UNK        -0.0944 
      7 S7         32.8765   24.2216    0.7532 S.3       12 UNK        -0.2672 
      8 C8         31.7611   22.9411    1.4392 C.3       12 UNK         0.0333 
      9 C9         31.0018   23.3271    2.7105 C.ar      12 UNK        -0.0807 
     10 C10        31.4620   24.3210    3.5846 C.ar      12 UNK        -0.0894 
     11 C11        30.7299   24.6658    4.7243 C.ar      12 UNK        -0.0804 
     12 C12        29.5447   23.9853    5.0112 C.ar      12 UNK        -0.0824 
     13 C13        29.0620   23.0029    4.1415 C.ar      12 UNK        -0.0762 
     14 C14        29.8008   22.6711    3.0021 C.ar      12 UNK        -0.0782 
     15 C15        27.7137   22.3428    4.4034 C.3       12 UNK         0.0230 
     16 S16        26.3828   23.0790    3.3889 S.3       12 UNK        -0.2608 
     17 C17        26.4664   24.8350    3.8808 C.3       12 UNK        -0.0989 
     18 CA         27.2952   25.6557    2.8480 C.3       5 UNK         0.0716 
     19 N          26.5627   25.9422    1.6131 N.am      5 UNK        -0.4135 
     20 C          25.5299   26.7868    1.4788 C.2       4 UNK         0.5031 
     21 O          25.0331   27.4215    2.4098 O.2       4 UNK        -0.5229 
     22 CA         24.9435   26.9627    0.0672 C.3       4 UNK         0.0329 
     23 CB         25.5521   28.1995   -0.6121 C.3       4 UNK        -0.2001 
     24 N          25.1373   25.8020   -0.8030 N.am      4 UNK        -0.4303 
     25 C          24.5293   24.6170   -0.6746 C.2       3 UNK         0.5044 
     26 O          23.7078   24.3655    0.2071 O.2       3 UNK        -0.5152 
     27 CA         24.8931   23.5208   -1.6961 C.3       3 UNK         0.0319 
     28 CB         24.0389   23.6507   -2.9724 C.3       3 UNK        -0.2001 
     29 N          26.3268   23.4170   -2.0158 N.am      3 UNK        -0.4354 
     30 C          27.1207   24.2987   -2.6407 C.2       2 UNK         0.4964 
     31 O          26.7472   25.3976   -3.0559 O.2       2 UNK        -0.5047 
     32 CA         28.6004   23.9089   -2.7757 C.3       2 UNK         0.0288 
     33 CB         29.0994   24.0903   -4.2192 C.3       2 UNK        -0.2113 
     34 N          29.4287   24.7112   -1.8769 N.am      2 UNK        -0.4145 
     35 C          29.4143   24.6361   -0.5400 C.2       1 UNK         0.5006 
     36 O          28.6787   23.8760    0.0902 O.2       1 UNK        -0.5103 
     37 C          27.9810   26.9238    3.4030 C.2       5 UNK         0.5055 
     38 O          28.8814   27.4382    2.7356 O.2       5 UNK        -0.5220 
     39 N          27.6011   27.3700    4.6092 N.am      6 UNK        -0.4450 
     40 CA         28.2426   28.4554    5.3540 C.3       6 UNK         0.0367 
     41 CB         27.5715   28.5958    6.7297 C.3       6 UNK        -0.1929 
     42 C          28.2371   29.7970    4.6015 C.2       6 UNK         0.5070 
     43 O          27.1731   30.2782    4.2076 O.2       6 UNK        -0.5237 
     44 N          29.4302   30.3766    4.4490 N.am      7 UNK        -0.4739 
     45 CA         29.7147   31.6460    3.7912 C.3       7 UNK         0.0276 
     46 CB         29.5542   31.5069    2.2644 C.3       7 UNK        -0.1927 
     47 C          31.1582   32.0222    4.1371 C.2       7 UNK         0.5013 
     48 O          31.9652   31.1295    4.4188 O.2       7 UNK        -0.5193 
     49 N          31.4849   33.3182    4.0514 N.am      8 UNK        -0.4253 
     50 CA         32.8358   33.8512    4.2798 C.3       8 UNK         0.0242 
     51 CB         32.7860   35.3876    4.2778 C.3       8 UNK        -0.2000 
     52 C          33.8818   33.3439    3.2680 C.2       8 UNK         0.4948 
     53 O          35.0588   33.2418    3.6127 O.2       8 UNK        -0.5275 
     54 N          33.4275   33.0094    2.0522 N.am      9 UNK        -0.4246 
     55 CA         34.2241   32.3747    0.9995 C.3       9 UNK         0.0261 
     56 CB         33.5518   32.6485   -0.3572 C.3       9 UNK        -0.1959 
     57 C          34.4172   30.8580    1.2054 C.2       9 UNK         0.5033 
     58 O          35.2270   30.2640    0.4916 O.2       9 UNK        -0.5390 
     59 N          33.6681   30.2572    2.1398 N.am      10 UNK        -0.4215 
     60 CA         33.7048   28.8390    2.4798 C.3       10 UNK         0.0240 
     61 CB         32.2707   28.2738    2.3991 C.3       10 UNK        -0.1982 
     62 C          34.3695   28.6951    3.8577 C.2       10 UNK         0.4970 
     63 O          35.5716   28.9401    3.9700 O.2       10 UNK        -0.4916 
     64 N          33.5930   28.3011    4.8733 N.am      11 UNK        -0.4279 
     65 CA         34.0461   28.1267    6.2623 C.3       11 UNK         0.1003 
     66 C          34.3306   29.4575    7.0178 C.2       11 UNK         0.5709 
     67 N          33.8397   30.6050    6.5640 N.am      11 UNK        -0.7358 
     68 O          35.0171   29.4459    8.0368 O.2       11 UNK        -0.4999 
     69 C69        33.0783   27.2295    7.0800 C.3       12 UNK        -0.0954 
     70 S70        32.8148   25.5854    6.3308 S.3       12 UNK        -0.2268 
     71 C71        31.1702   25.8314    5.5965 C.3       12 UNK         0.0203 
     72 H72        30.1216   29.9192   -0.6745 H         1 UNK         0.0888 
     73 H73        28.6234   29.4538   -1.4843 H         1 UNK         0.0888 
     74 H74        28.7712   29.2720    0.2648 H         1 UNK         0.0888 
     75 H75        29.4873   27.3066    1.0520 H         1 UNK         0.3017 
     76 H76        30.2472   25.3533    1.2812 H         1 UNK         0.0873 
     77 H77        31.9795   25.2589   -1.2226 H         1 UNK         0.0745 
     78 H78        32.3573   26.3970    0.0118 H         1 UNK         0.0745 
     79 H79        32.3719   22.0700    1.6790 H         1 UNK         0.0705 
     80 H80        31.0728   22.6134    0.6600 H         1 UNK         0.0705 
     81 H81        32.3815   24.8488    3.3760 H         1 UNK         0.1334 
     82 H82        28.9716   24.2543    5.8879 H         1 UNK         0.1417 
     83 H83        29.4193   21.9207    2.3224 H         1 UNK         0.1562 
     84 H84        27.4466   22.4185    5.4586 H         1 UNK         0.0748 
     85 H85        27.7789   21.2764    4.1824 H         1 UNK         0.0748 
     86 H86        26.8897   24.8753    4.8843 H         1 UNK         0.0940 
     87 H87        25.4513   25.2243    3.9728 H         1 UNK         0.0940 
     88 H88        28.1328   25.0342    2.5332 H         1 UNK         0.0703 
     89 H89        26.8870   25.4466    0.7950 H         1 UNK         0.3081 
     90 H90        23.8693   27.1256    0.1780 H         1 UNK         0.0719 
     91 H91        26.6154   28.0642   -0.8086 H         1 UNK         0.0809 
     92 H92        25.0611   28.4114   -1.5621 H         1 UNK         0.0809 
     93 H93        25.4433   29.0867    0.0137 H         1 UNK         0.0809 
     94 H94        25.7697   25.9082   -1.5936 H         1 UNK         0.2990 
     95 H95        24.6329   22.5696   -1.2287 H         1 UNK         0.0690 
     96 H96        24.2276   24.5868   -3.4989 H         1 UNK         0.0788 
     97 H97        22.9752   23.6251   -2.7318 H         1 UNK         0.0788 
     98 H98        24.2338   22.8316   -3.6647 H         1 UNK         0.0788 
     99 H99        26.7703   22.5830   -1.6543 H         1 UNK         0.2993 
    100 H100       28.7202   22.8574   -2.5052 H         1 UNK         0.0949 
    101 H101       29.0502   25.1330   -4.5368 H         1 UNK         0.0767 
    102 H102       30.1319   23.7567   -4.3262 H         1 UNK         0.0767 
    103 H103       28.4961   23.5075   -4.9166 H         1 UNK         0.0767 
    104 H104       29.9582   25.4722   -2.2908 H         1 UNK         0.3013 
    105 H105       26.8016   26.9401    5.0491 H         1 UNK         0.3121 
    106 H106       29.2790   28.1581    5.5202 H         1 UNK         0.0774 
    107 H107       28.0449   29.3850    7.3155 H         1 UNK         0.0815 
    108 H108       26.5144   28.8490    6.6379 H         1 UNK         0.0815 
    109 H109       27.6493   27.6749    7.3078 H         1 UNK         0.0815 
    110 H110       30.2587   29.9391    4.8319 H         1 UNK         0.2987 
    111 H111       29.0372   32.4105    4.1773 H         1 UNK         0.0949 
    112 H112       30.2213   30.7444    1.8603 H         1 UNK         0.0806 
    113 H113       28.5345   31.2343    1.9924 H         1 UNK         0.0806 
    114 H114       29.7794   32.4445    1.7551 H         1 UNK         0.0806 
    115 H115       30.7683   33.9887    3.8104 H         1 UNK         0.3010 
    116 H116       33.1586   33.5209    5.2697 H         1 UNK         0.0829 
    117 H117       33.7734   35.8099    4.4707 H         1 UNK         0.0813 
    118 H118       32.4456   35.7809    3.3191 H         1 UNK         0.0813 
    119 H119       32.1187   35.7648    5.0530 H         1 UNK         0.0813 
    120 H120       32.4487   33.1554    1.8536 H         1 UNK         0.3038 
    121 H121       35.2165   32.8307    0.9881 H         1 UNK         0.0769 
    122 H122       34.1378   32.2279   -1.1758 H         1 UNK         0.0811 
    123 H123       33.4588   33.7181   -0.5462 H         1 UNK         0.0811 
    124 H124       32.5553   32.2080   -0.4114 H         1 UNK         0.0811 
    125 H125       33.0937   30.8302    2.7474 H         1 UNK         0.3204 
    126 H126       34.3218   28.2866    1.7681 H         1 UNK         0.0748 
    127 H127       32.2512   27.2036    2.6078 H         1 UNK         0.0771 
    128 H128       31.5811   28.7656    3.0851 H         1 UNK         0.0771 
    129 H129       31.8702   28.4095    1.3960 H         1 UNK         0.0771 
    130 H130       32.6145   28.1440    4.6987 H         1 UNK         0.2980 
    131 H131       35.0035   27.6037    6.2183 H         1 UNK         0.0545 
    132 H132       33.2493   30.6380    5.7391 H         1 UNK         0.3459 
    133 H133       34.0426   31.4524    7.0679 H         1 UNK         0.3459 
    134 H134       33.4766   27.0629    8.0826 H         1 UNK         0.0616 
    135 H135       32.1175   27.7287    7.2191 H         1 UNK         0.0616 
    136 H136       31.1777   26.7310    4.9816 H         1 UNK         0.0634 
    137 H137       30.4518   26.0091    6.3985 H         1 UNK         0.0634 
@<TRIPOS>BOND
     1    1    2 1    
     2    1   72 1    
     3    1   73 1    
     4    1   74 1    
     5    2    3 2    
     6    2    4 am   BACKBONE|DICT|INTERRES
     7    4    5 1    
     8    4   75 1    
     9    5    6 1    
    10    5   35 1    
    11    5   76 1    
    12    6    7 1    
    13    6   77 1    
    14    6   78 1    
    15    7    8 1    
    16    8    9 1    
    17    8   79 1    
    18    8   80 1    
    19    9   10 ar   
    20    9   14 ar   
    21   10   11 ar   
    22   10   81 1    
    23   11   12 ar   
    24   11   71 1    
    25   12   13 ar   
    26   12   82 1    
    27   13   14 ar   
    28   13   15 1    
    29   14   83 1    
    30   15   16 1    
    31   15   84 1    
    32   15   85 1    
    33   16   17 1    
    34   17   18 1    
    35   17   86 1    
    36   17   87 1    
    37   18   19 1    
    38   18   37 1    
    39   18   88 1    
    40   19   20 am   BACKBONE|DICT|INTERRES
    41   19   89 1    
    42   20   21 2    
    43   20   22 1    
    44   22   23 1    
    45   22   24 1    
    46   22   90 1    
    47   23   91 1    
    48   23   92 1    
    49   23   93 1    
    50   24   25 am   BACKBONE|DICT|INTERRES
    51   24   94 1    
    52   25   26 2    
    53   25   27 1    
    54   27   28 1    
    55   27   29 1    
    56   27   95 1    
    57   28   96 1    
    58   28   97 1    
    59   28   98 1    
    60   29   30 am   BACKBONE|DICT|INTERRES
    61   29   99 1    
    62   30   31 2    
    63   30   32 1    
    64   32   33 1    
    65   32   34 1    
    66   32  100 1    
    67   33  101 1    
    68   33  102 1    
    69   33  103 1    
    70   34   35 am   BACKBONE|DICT|INTERRES
    71   34  104 1    
    72   35   36 2    
    73   37   38 2    
    74   37   39 am   BACKBONE|DICT|INTERRES
    75   39   40 1    
    76   39  105 1    
    77   40   41 1    
    78   40   42 1    
    79   40  106 1    
    80   41  107 1    
    81   41  108 1    
    82   41  109 1    
    83   42   43 2    
    84   42   44 am   BACKBONE|DICT|INTERRES
    85   44   45 1    
    86   44  110 1    
    87   45   46 1    
    88   45   47 1    
    89   45  111 1    
    90   46  112 1    
    91   46  113 1    
    92   46  114 1    
    93   47   48 2    
    94   47   49 am   BACKBONE|DICT|INTERRES
    95   49   50 1    
    96   49  115 1    
    97   50   51 1    
    98   50   52 1    
    99   50  116 1    
   100   51  117 1    
   101   51  118 1    
   102   51  119 1    
   103   52   53 2    
   104   52   54 am   BACKBONE|DICT|INTERRES
   105   54   55 1    
   106   54  120 1    
   107   55   56 1    
   108   55   57 1    
   109   55  121 1    
   110   56  122 1    
   111   56  123 1    
   112   56  124 1    
   113   57   58 2    
   114   57   59 am   BACKBONE|DICT|INTERRES
   115   59   60 1    
   116   59  125 1    
   117   60   61 1    
   118   60   62 1    
   119   60  126 1    
   120   61  127 1    
   121   61  128 1    
   122   61  129 1    
   123   62   63 2    
   124   62   64 am   BACKBONE|DICT|INTERRES
   125   64   65 1    
   126   64  130 1    
   127   65   66 1    
   128   65   69 1    
   129   65  131 1    
   130   66   67 am   BACKBONE|DICT|INTERRES
   131   66   68 2    
   132   67  132 1    
   133   67  133 1    
   134   69   70 1    
   135   69  134 1    
   136   69  135 1    
   137   70   71 1    
   138   71  136 1    
   139   71  137 1    
@<TRIPOS>SUBSTRUCTURE
     1 UNK         1 GROUP             0       ****    0 ROOT    
