@<TRIPOS>MOLECULE
3R136
137   139    1
SMALL
USER_CHARGES


@<TRIPOS>ATOM
      1 CA         29.4050   23.2645    1.8117 C.3       0 UNK        -0.1979 
      2 C          29.1615   24.7647    1.7803 C.2       0 UNK         0.4864 
      3 O          28.1069   25.2004    1.3129 O.2       0 UNK        -0.5359 
      4 N          30.1126   25.5701    2.2752 N.am      1 UNK        -0.4318 
      5 CA         29.9278   27.0102    2.4893 C.3       1 UNK         0.0824 
      6 C6         31.2499   27.7431    2.8334 C.3       12 UNK        -0.0944 
      7 S7         32.0478   28.4807    1.3667 S.3       12 UNK        -0.2672 
      8 C8         33.6344   27.6024    1.2524 C.3       12 UNK         0.0333 
      9 C9         33.3885   26.1268    1.0193 C.ar      12 UNK        -0.0807 
     10 C10        33.5249   25.2292    2.0732 C.ar      12 UNK        -0.0894 
     11 C11        33.1377   23.8965    1.9319 C.ar      12 UNK        -0.0804 
     12 C12        32.6516   23.4539    0.6932 C.ar      12 UNK        -0.0824 
     13 C13        32.5397   24.3451   -0.3836 C.ar      12 UNK        -0.0762 
     14 C14        32.9323   25.6752   -0.2177 C.ar      12 UNK        -0.0782 
     15 C15        31.9705   23.8991   -1.7241 C.3       12 UNK         0.0230 
     16 S16        30.1603   24.1172   -1.8215 S.3       12 UNK        -0.2608 
     17 C17        29.9471   25.9152   -1.5511 C.3       12 UNK        -0.0989 
     18 CA         28.5532   26.4496   -1.9701 C.3       5 UNK         0.0716 
     19 N          27.4444   25.6616   -1.4189 N.am      5 UNK        -0.4135 
     20 C          26.2959   25.4376   -2.0720 C.2       4 UNK         0.5031 
     21 O          26.0483   25.8839   -3.1936 O.2       4 UNK        -0.5229 
     22 CA         25.2347   24.5643   -1.3778 C.3       4 UNK         0.0329 
     23 CB         25.4344   23.0877   -1.7564 C.3       4 UNK        -0.2001 
     24 N          25.1873   24.6812    0.0818 N.am      4 UNK        -0.4303 
     25 C          24.9545   25.8059    0.7712 C.2       3 UNK         0.5044 
     26 O          24.8212   26.9130    0.2465 O.2       3 UNK        -0.5152 
     27 CA         24.8634   25.6924    2.3013 C.3       3 UNK         0.0319 
     28 CB         25.1049   24.2725    2.8567 C.3       3 UNK        -0.2001 
     29 N          25.8493   26.6012    2.8751 N.am      3 UNK        -0.4354 
     30 C          25.5755   27.7081    3.5769 C.2       2 UNK         0.4964 
     31 O          24.4323   28.0544    3.8783 O.2       2 UNK        -0.5047 
     32 CA         26.7515   28.6086    4.0086 C.3       2 UNK         0.0288 
     33 CB         26.8536   28.6653    5.5487 C.3       2 UNK        -0.2113 
     34 N          28.0343   28.2878    3.3563 N.am      2 UNK        -0.4145 
     35 C          28.8430   27.2401    3.5656 C.2       1 UNK         0.5006 
     36 O          28.7339   26.4521    4.5072 O.2       1 UNK        -0.5103 
     37 C          28.4162   27.9499   -1.6274 C.2       5 UNK         0.5055 
     38 O          29.0548   28.7608   -2.2985 O.2       5 UNK        -0.5220 
     39 N          27.5925   28.2942   -0.6192 N.am      6 UNK        -0.4450 
     40 CA         27.3055   29.6451   -0.1122 C.3       6 UNK         0.0367 
     41 CB         26.4513   30.4319   -1.1312 C.3       6 UNK        -0.1929 
     42 C          28.5850   30.3813    0.3405 C.2       6 UNK         0.5070 
     43 O          29.1105   30.0412    1.4019 O.2       6 UNK        -0.5237 
     44 N          29.0456   31.3428   -0.4736 N.am      7 UNK        -0.4739 
     45 CA         30.3482   32.0205   -0.4688 C.3       7 UNK         0.0276 
     46 CB         31.3625   31.1732   -1.2682 C.3       7 UNK        -0.1927 
     47 C          30.8602   32.4787    0.9132 C.2       7 UNK         0.5013 
     48 O          30.2926   33.4116    1.4827 O.2       7 UNK        -0.5193 
     49 N          31.9455   31.8573    1.3986 N.am      8 UNK        -0.4253 
     50 CA         32.7013   32.2403    2.5974 C.3       8 UNK         0.0242 
     51 CB         34.0582   31.5151    2.5835 C.3       8 UNK        -0.2000 
     52 C          31.9765   31.9916    3.9325 C.2       8 UNK         0.4948 
     53 O          32.4485   32.4756    4.9615 O.2       8 UNK        -0.5275 
     54 N          30.8639   31.2466    3.9011 N.am      9 UNK        -0.4246 
     55 CA         29.9575   30.9587    5.0177 C.3       9 UNK         0.0261 
     56 CB         29.3114   32.2532    5.5560 C.3       9 UNK        -0.1959 
     57 C          30.5299   30.0724    6.1477 C.2       9 UNK         0.5033 
     58 O          29.8964   29.9756    7.2002 O.2       9 UNK        -0.5390 
     59 N          31.6685   29.4034    5.9240 N.am      10 UNK        -0.4215 
     60 CA         32.2334   28.3958    6.8211 C.3       10 UNK         0.0240 
     61 CB         32.9928   29.0736    7.9774 C.3       10 UNK        -0.1982 
     62 C          33.1684   27.4723    6.0329 C.2       10 UNK         0.4970 
     63 O          33.8497   27.9448    5.1201 O.2       10 UNK        -0.4916 
     64 N          33.2041   26.1924    6.4210 N.am      11 UNK        -0.4279 
     65 CA         34.2094   25.2118    5.9831 C.3       11 UNK         0.1003 
     66 C          35.4300   25.2139    6.9420 C.2       11 UNK         0.5709 
     67 N          36.6077   24.8570    6.4479 N.am      11 UNK        -0.7358 
     68 O          35.3167   25.5033    8.1325 O.2       11 UNK        -0.4999 
     69 C69        33.6168   23.7810    5.8479 C.3       12 UNK        -0.0954 
     70 S70        32.3108   23.6366    4.5763 S.3       12 UNK        -0.2268 
     71 C71        33.2189   22.9639    3.1346 C.3       12 UNK         0.0203 
     72 H72        28.5427   22.7567    2.2420 H         1 UNK         0.0888 
     73 H73        29.5552   22.8834    0.8031 H         1 UNK         0.0888 
     74 H74        30.2766   23.0075    2.4107 H         1 UNK         0.0888 
     75 H75        30.9704   25.1724    2.6319 H         1 UNK         0.3017 
     76 H76        29.5378   27.4177    1.5545 H         1 UNK         0.0873 
     77 H77        31.9375   27.0910    3.3701 H         1 UNK         0.0745 
     78 H78        31.0623   28.5802    3.4989 H         1 UNK         0.0745 
     79 H79        34.2186   28.0162    0.4294 H         1 UNK         0.0705 
     80 H80        34.2109   27.7716    2.1636 H         1 UNK         0.0705 
     81 H81        33.8742   25.5920    3.0254 H         1 UNK         0.1334 
     82 H82        32.3384   22.4260    0.5713 H         1 UNK         0.1417 
     83 H83        32.8277   26.3779   -1.0325 H         1 UNK         0.1562 
     84 H84        32.2073   22.8478   -1.8944 H         1 UNK         0.0748 
     85 H85        32.4432   24.4511   -2.5380 H         1 UNK         0.0748 
     86 H86        30.7181   26.4386   -2.1193 H         1 UNK         0.0940 
     87 H87        30.1455   26.1363   -0.5030 H         1 UNK         0.0940 
     88 H88        28.5147   26.3814   -3.0596 H         1 UNK         0.0703 
     89 H89        27.5797   25.2837   -0.4831 H         1 UNK         0.3081 
     90 H90        24.2609   24.8828   -1.7555 H         1 UNK         0.0719 
     91 H91        25.4450   22.9601   -2.8400 H         1 UNK         0.0809 
     92 H92        26.3792   22.6983   -1.3741 H         1 UNK         0.0809 
     93 H93        24.6297   22.4636   -1.3675 H         1 UNK         0.0809 
     94 H94        25.3222   23.8288    0.6054 H         1 UNK         0.2990 
     95 H95        23.8506   25.9930    2.5763 H         1 UNK         0.0690 
     96 H96        25.0207   24.2644    3.9436 H         1 UNK         0.0788 
     97 H97        26.0962   23.8933    2.6060 H         1 UNK         0.0788 
     98 H98        24.3652   23.5655    2.4787 H         1 UNK         0.0788 
     99 H99        26.8111   26.3891    2.6409 H         1 UNK         0.2993 
    100 H100       26.4965   29.6123    3.6644 H         1 UNK         0.0949 
    101 H101       27.0504   27.6867    5.9861 H         1 UNK         0.0767 
    102 H102       27.6316   29.3453    5.8843 H         1 UNK         0.0767 
    103 H103       25.9191   29.0217    5.9838 H         1 UNK         0.0767 
    104 H104       28.2879   28.9059    2.5859 H         1 UNK         0.3013 
    105 H105       27.0775   27.5483   -0.1701 H         1 UNK         0.3121 
    106 H106       26.6964   29.5135    0.7833 H         1 UNK         0.0774 
    107 H107       25.5018   29.9264   -1.3089 H         1 UNK         0.0815 
    108 H108       26.2151   31.4307   -0.7612 H         1 UNK         0.0815 
    109 H109       26.9466   30.5407   -2.0966 H         1 UNK         0.0815 
    110 H110       28.4812   31.5353   -1.2887 H         1 UNK         0.2987 
    111 H111       30.2024   32.9444   -1.0309 H         1 UNK         0.0949 
    112 H112       31.0418   31.0654   -2.3046 H         1 UNK         0.0806 
    113 H113       32.3502   31.6361   -1.2916 H         1 UNK         0.0806 
    114 H114       31.4660   30.1675   -0.8639 H         1 UNK         0.0806 
    115 H115       32.2966   31.0601    0.8860 H         1 UNK         0.3010 
    116 H116       32.8895   33.3143    2.5365 H         1 UNK         0.0829 
    117 H117       34.6111   31.7185    1.6663 H         1 UNK         0.0813 
    118 H118       34.6843   31.8426    3.4148 H         1 UNK         0.0813 
    119 H119       33.9417   30.4349    2.6752 H         1 UNK         0.0813 
    120 H120       30.5634   30.9021    2.9954 H         1 UNK         0.3038 
    121 H121       29.1571   30.3781    4.5668 H         1 UNK         0.0769 
    122 H122       28.5028   32.0287    6.2527 H         1 UNK         0.0811 
    123 H123       28.8840   32.8483    4.7488 H         1 UNK         0.0811 
    124 H124       30.0324   32.8751    6.0872 H         1 UNK         0.0811 
    125 H125       32.1704   29.5319    5.0549 H         1 UNK         0.3204 
    126 H126       31.4186   27.7927    7.2284 H         1 UNK         0.0748 
    127 H127       32.3280   29.6840    8.5887 H         1 UNK         0.0771 
    128 H128       33.4476   28.3327    8.6365 H         1 UNK         0.0771 
    129 H129       33.7919   29.7178    7.6078 H         1 UNK         0.0771 
    130 H130       32.6347   25.9034    7.2027 H         1 UNK         0.2980 
    131 H131       34.5937   25.5106    5.0099 H         1 UNK         0.0545 
    132 H132       37.4088   24.8406    7.0597 H         1 UNK         0.3459 
    133 H133       36.7151   24.6069    5.4774 H         1 UNK         0.3459 
    134 H134       33.1860   23.4653    6.7997 H         1 UNK         0.0616 
    135 H135       34.4017   23.0553    5.6288 H         1 UNK         0.0616 
    136 H136       32.8028   21.9854    2.8911 H         1 UNK         0.0634 
    137 H137       34.2689   22.8006    3.3780 H         1 UNK         0.0634 
@<TRIPOS>BOND
     1    1    2 1    
     2    1   72 1    
     3    1   73 1    
     4    1   74 1    
     5    2    3 2    
     6    2    4 am   BACKBONE|DICT|INTERRES
     7    4    5 1    
     8    4   75 1    
     9    5    6 1    
    10    5   35 1    
    11    5   76 1    
    12    6    7 1    
    13    6   77 1    
    14    6   78 1    
    15    7    8 1    
    16    8    9 1    
    17    8   79 1    
    18    8   80 1    
    19    9   10 ar   
    20    9   14 ar   
    21   10   11 ar   
    22   10   81 1    
    23   11   12 ar   
    24   11   71 1    
    25   12   13 ar   
    26   12   82 1    
    27   13   14 ar   
    28   13   15 1    
    29   14   83 1    
    30   15   16 1    
    31   15   84 1    
    32   15   85 1    
    33   16   17 1    
    34   17   18 1    
    35   17   86 1    
    36   17   87 1    
    37   18   19 1    
    38   18   37 1    
    39   18   88 1    
    40   19   20 am   BACKBONE|DICT|INTERRES
    41   19   89 1    
    42   20   21 2    
    43   20   22 1    
    44   22   23 1    
    45   22   24 1    
    46   22   90 1    
    47   23   91 1    
    48   23   92 1    
    49   23   93 1    
    50   24   25 am   BACKBONE|DICT|INTERRES
    51   24   94 1    
    52   25   26 2    
    53   25   27 1    
    54   27   28 1    
    55   27   29 1    
    56   27   95 1    
    57   28   96 1    
    58   28   97 1    
    59   28   98 1    
    60   29   30 am   BACKBONE|DICT|INTERRES
    61   29   99 1    
    62   30   31 2    
    63   30   32 1    
    64   32   33 1    
    65   32   34 1    
    66   32  100 1    
    67   33  101 1    
    68   33  102 1    
    69   33  103 1    
    70   34   35 am   BACKBONE|DICT|INTERRES
    71   34  104 1    
    72   35   36 2    
    73   37   38 2    
    74   37   39 am   BACKBONE|DICT|INTERRES
    75   39   40 1    
    76   39  105 1    
    77   40   41 1    
    78   40   42 1    
    79   40  106 1    
    80   41  107 1    
    81   41  108 1    
    82   41  109 1    
    83   42   43 2    
    84   42   44 am   BACKBONE|DICT|INTERRES
    85   44   45 1    
    86   44  110 1    
    87   45   46 1    
    88   45   47 1    
    89   45  111 1    
    90   46  112 1    
    91   46  113 1    
    92   46  114 1    
    93   47   48 2    
    94   47   49 am   BACKBONE|DICT|INTERRES
    95   49   50 1    
    96   49  115 1    
    97   50   51 1    
    98   50   52 1    
    99   50  116 1    
   100   51  117 1    
   101   51  118 1    
   102   51  119 1    
   103   52   53 2    
   104   52   54 am   BACKBONE|DICT|INTERRES
   105   54   55 1    
   106   54  120 1    
   107   55   56 1    
   108   55   57 1    
   109   55  121 1    
   110   56  122 1    
   111   56  123 1    
   112   56  124 1    
   113   57   58 2    
   114   57   59 am   BACKBONE|DICT|INTERRES
   115   59   60 1    
   116   59  125 1    
   117   60   61 1    
   118   60   62 1    
   119   60  126 1    
   120   61  127 1    
   121   61  128 1    
   122   61  129 1    
   123   62   63 2    
   124   62   64 am   BACKBONE|DICT|INTERRES
   125   64   65 1    
   126   64  130 1    
   127   65   66 1    
   128   65   69 1    
   129   65  131 1    
   130   66   67 am   BACKBONE|DICT|INTERRES
   131   66   68 2    
   132   67  132 1    
   133   67  133 1    
   134   69   70 1    
   135   69  134 1    
   136   69  135 1    
   137   70   71 1    
   138   71  136 1    
   139   71  137 1    
@<TRIPOS>SUBSTRUCTURE
     1 UNK         1 GROUP             0       ****    0 ROOT    
