@<TRIPOS>MOLECULE
3R136
137   139    1
SMALL
USER_CHARGES


@<TRIPOS>ATOM
      1 CA         29.3702   23.2914   -4.8243 C.3       0 UNK        -0.1979 
      2 C          29.3022   24.1247   -3.5536 C.2       0 UNK         0.4864 
      3 O          28.3709   24.9140   -3.3912 O.2       0 UNK        -0.5359 
      4 N          30.2718   23.9430   -2.6443 N.am      1 UNK        -0.4318 
      5 CA         30.3989   24.6543   -1.3623 C.3       1 UNK         0.0824 
      6 C6         31.6910   24.2464   -0.6086 C.3       12 UNK        -0.0944 
      7 S7         31.7608   22.4674   -0.1825 S.3       12 UNK        -0.2672 
      8 C8         32.7659   22.4612    1.3394 C.3       12 UNK         0.0333 
      9 C9         32.1932   23.3156    2.4671 C.ar      12 UNK        -0.0807 
     10 C10        33.0045   24.2699    3.0875 C.ar      12 UNK        -0.0894 
     11 C11        32.5165   25.0423    4.1442 C.ar      12 UNK        -0.0804 
     12 C12        31.1993   24.8653    4.5787 C.ar      12 UNK        -0.0824 
     13 C13        30.3763   23.9121    3.9702 C.ar      12 UNK        -0.0762 
     14 C14        30.8788   23.1398    2.9156 C.ar      12 UNK        -0.0782 
     15 C15        28.9591   23.6821    4.4763 C.3       12 UNK         0.0230 
     16 S16        27.7280   24.6515    3.5493 S.3       12 UNK        -0.2608 
     17 C17        27.6744   26.2363    4.4480 C.3       12 UNK        -0.0989 
     18 CA         28.1465   27.4422    3.5984 C.3       5 UNK         0.0716 
     19 N          27.4141   27.5735    2.3311 N.am      5 UNK        -0.4135 
     20 C          27.6564   28.5052    1.3973 C.2       4 UNK         0.5031 
     21 O          28.5884   29.3126    1.4617 O.2       4 UNK        -0.5229 
     22 CA         26.6819   28.5751    0.2127 C.3       4 UNK         0.0329 
     23 CB         27.1896   29.4796   -0.9296 C.3       4 UNK        -0.2001 
     24 N          26.3578   27.2479   -0.3146 N.am      4 UNK        -0.4303 
     25 C          25.1872   26.9463   -0.8989 C.2       3 UNK         0.5044 
     26 O          24.2350   27.7272   -0.9463 O.2       3 UNK        -0.5152 
     27 CA         25.0316   25.5716   -1.5772 C.3       3 UNK         0.0319 
     28 CB         25.0286   25.7275   -3.1075 C.3       3 UNK        -0.2001 
     29 N          26.0688   24.6126   -1.2018 N.am      3 UNK        -0.4354 
     30 C          26.0760   23.9235   -0.0517 C.2       2 UNK         0.4964 
     31 O          25.1778   23.9933    0.7880 O.2       2 UNK        -0.5047 
     32 CA         27.2793   22.9998    0.2158 C.3       2 UNK         0.0288 
     33 CB         26.9179   21.5425   -0.1141 C.3       2 UNK        -0.2113 
     34 N          28.5030   23.3567   -0.5051 N.am      2 UNK        -0.4145 
     35 C          29.1491   24.5329   -0.4622 C.2       1 UNK         0.5006 
     36 O          28.7702   25.5074    0.1881 O.2       1 UNK        -0.5103 
     37 C          28.0082   28.7405    4.4191 C.2       5 UNK         0.5055 
     38 O          26.8828   29.1980    4.6331 O.2       5 UNK        -0.5220 
     39 N          29.1424   29.3321    4.8121 N.am      6 UNK        -0.4450 
     40 CA         29.3255   30.6240    5.4910 C.3       6 UNK         0.0367 
     41 CB         28.5986   30.6668    6.8491 C.3       6 UNK        -0.1929 
     42 C          28.9804   31.8565    4.6315 C.2       6 UNK         0.5070 
     43 O          29.6347   32.8877    4.7851 O.2       6 UNK        -0.5237 
     44 N          27.9849   31.7406    3.7426 N.am      7 UNK        -0.4739 
     45 CA         27.5538   32.7769    2.8007 C.3       7 UNK         0.0276 
     46 CB         26.2436   32.3389    2.1267 C.3       7 UNK        -0.1927 
     47 C          28.6202   33.1180    1.7455 C.2       7 UNK         0.5013 
     48 O          28.7658   34.2903    1.3961 O.2       7 UNK        -0.5193 
     49 N          29.3501   32.0990    1.2763 N.am      8 UNK        -0.4253 
     50 CA         30.4935   32.2375    0.3737 C.3       8 UNK         0.0242 
     51 CB         30.0621   31.9980   -1.0831 C.3       8 UNK        -0.2000 
     52 C          31.6221   31.2847    0.7818 C.2       8 UNK         0.4948 
     53 O          32.7766   31.7095    0.8464 O.2       8 UNK        -0.5275 
     54 N          31.2793   30.0233    1.0744 N.am      9 UNK        -0.4246 
     55 CA         32.2017   29.0119    1.5783 C.3       9 UNK         0.0261 
     56 CB         31.7175   27.6200    1.1324 C.3       9 UNK        -0.1959 
     57 C          32.2800   29.1335    3.1045 C.2       9 UNK         0.5033 
     58 O          31.5280   28.4582    3.8075 O.2       9 UNK        -0.5390 
     59 N          33.1482   30.0238    3.5931 N.am      10 UNK        -0.4215 
     60 CA         33.4355   30.1995    5.0159 C.3       10 UNK         0.0240 
     61 CB         33.6037   31.6970    5.3199 C.3       10 UNK        -0.1982 
     62 C          34.7083   29.4188    5.3672 C.2       10 UNK         0.4970 
     63 O          35.7051   29.5373    4.6505 O.2       10 UNK        -0.4916 
     64 N          34.6511   28.6416    6.4530 N.am      11 UNK        -0.4279 
     65 CA         35.7422   27.7736    6.9242 C.3       11 UNK         0.1003 
     66 C          35.7147   27.5067    8.4575 C.2       11 UNK         0.5709 
     67 N          34.9321   28.2373    9.2448 N.am      11 UNK        -0.7358 
     68 O          36.4329   26.6413    8.9527 O.2       11 UNK        -0.4999 
     69 C69        35.9078   26.4917    6.0537 C.3       12 UNK        -0.0954 
     70 S70        34.4846   25.3430    6.0739 S.3       12 UNK        -0.2268 
     71 C71        33.4168   26.0766    4.7984 C.3       12 UNK         0.0203 
     72 H72        29.4326   23.9427   -5.6956 H         1 UNK         0.0888 
     73 H73        30.2359   22.6294   -4.8327 H         1 UNK         0.0888 
     74 H74        28.4735   22.6795   -4.9194 H         1 UNK         0.0888 
     75 H75        30.9988   23.2659   -2.8295 H         1 UNK         0.3017 
     76 H76        30.4882   25.7142   -1.6107 H         1 UNK         0.0873 
     77 H77        32.5655   24.4849   -1.2159 H         1 UNK         0.0745 
     78 H78        31.7922   24.8454    0.2965 H         1 UNK         0.0745 
     79 H79        33.7758   22.7856    1.0822 H         1 UNK         0.0705 
     80 H80        32.8565   21.4333    1.6931 H         1 UNK         0.0705 
     81 H81        34.0247   24.4092    2.7560 H         1 UNK         0.1334 
     82 H82        30.8192   25.4641    5.3949 H         1 UNK         0.1417 
     83 H83        30.2478   22.3980    2.4445 H         1 UNK         0.1562 
     84 H84        28.8880   23.8995    5.5432 H         1 UNK         0.0748 
     85 H85        28.7079   22.6250    4.3740 H         1 UNK         0.0748 
     86 H86        28.2761   26.1591    5.3554 H         1 UNK         0.0940 
     87 H87        26.6457   26.3847    4.7839 H         1 UNK         0.0940 
     88 H88        29.1973   27.2874    3.3476 H         1 UNK         0.0703 
     89 H89        26.6413   26.9385    2.1993 H         1 UNK         0.3081 
     90 H90        25.7750   29.0282    0.6193 H         1 UNK         0.0719 
     91 H91        28.1116   29.0907   -1.3636 H         1 UNK         0.0809 
     92 H92        26.4536   29.5652   -1.7291 H         1 UNK         0.0809 
     93 H93        27.3895   30.4908   -0.5735 H         1 UNK         0.0809 
     94 H94        27.1001   26.5537   -0.2708 H         1 UNK         0.2990 
     95 H95        24.0603   25.1697   -1.2795 H         1 UNK         0.0690 
     96 H96        24.8892   24.7678   -3.6061 H         1 UNK         0.0788 
     97 H97        25.9613   26.1625   -3.4700 H         1 UNK         0.0788 
     98 H98        24.2177   26.3812   -3.4320 H         1 UNK         0.0788 
     99 H99        26.8548   24.5247   -1.8369 H         1 UNK         0.2993 
    100 H100       27.5046   23.0560    1.2796 H         1 UNK         0.0949 
    101 H101       26.7139   21.4085   -1.1773 H         1 UNK         0.0767 
    102 H102       27.7222   20.8609    0.1641 H         1 UNK         0.0767 
    103 H103       26.0269   21.2279    0.4316 H         1 UNK         0.0767 
    104 H104       28.9091   22.6331   -1.0803 H         1 UNK         0.3013 
    105 H105       30.0176   28.9020    4.5002 H         1 UNK         0.3121 
    106 H106       30.3945   30.6901    5.6953 H         1 UNK         0.0774 
    107 H107       28.8501   31.5782    7.3932 H         1 UNK         0.0815 
    108 H108       27.5144   30.6503    6.7350 H         1 UNK         0.0815 
    109 H109       28.8841   29.8242    7.4788 H         1 UNK         0.0815 
    110 H110       27.4738   30.8639    3.7365 H         1 UNK         0.2987 
    111 H111       27.3578   33.6857    3.3741 H         1 UNK         0.0949 
    112 H112       25.8884   33.1010    1.4314 H         1 UNK         0.0806 
    113 H113       26.3687   31.4152    1.5619 H         1 UNK         0.0806 
    114 H114       25.4542   32.1782    2.8613 H         1 UNK         0.0806 
    115 H115       29.1314   31.1612    1.6014 H         1 UNK         0.3010 
    116 H116       30.8937   33.2511    0.4495 H         1 UNK         0.0829 
    117 H117       29.2635   32.6788   -1.3781 H         1 UNK         0.0813 
    118 H118       30.8969   32.1607   -1.7659 H         1 UNK         0.0813 
    119 H119       29.7105   30.9785   -1.2387 H         1 UNK         0.0813 
    120 H120       30.2982   29.7505    1.0547 H         1 UNK         0.3038 
    121 H121       33.1995   29.1683    1.1623 H         1 UNK         0.0769 
    122 H122       30.7023   27.4083    1.4697 H         1 UNK         0.0811 
    123 H123       32.3618   26.8397    1.5386 H         1 UNK         0.0811 
    124 H124       31.7319   27.5254    0.0469 H         1 UNK         0.0811 
    125 H125       33.7284   30.5433    2.9471 H         1 UNK         0.3204 
    126 H126       32.6079   29.8218    5.6194 H         1 UNK         0.0748 
    127 H127       33.8116   31.8604    6.3781 H         1 UNK         0.0771 
    128 H128       34.4259   32.1366    4.7532 H         1 UNK         0.0771 
    129 H129       32.6966   32.2522    5.0782 H         1 UNK         0.0771 
    130 H130       33.7931   28.5818    6.9819 H         1 UNK         0.2980 
    131 H131       36.6633   28.3464    6.7991 H         1 UNK         0.0545 
    132 H132       34.9355   28.0512   10.2357 H         1 UNK         0.3459 
    133 H133       34.3921   29.0069    8.8859 H         1 UNK         0.3459 
    134 H134       36.7860   25.9327    6.3807 H         1 UNK         0.0616 
    135 H135       36.1242   26.7675    5.0206 H         1 UNK         0.0616 
    136 H136       34.0168   26.5711    4.0326 H         1 UNK         0.0634 
    137 H137       32.8145   26.8501    5.2737 H         1 UNK         0.0634 
@<TRIPOS>BOND
     1    1    2 1    
     2    1   72 1    
     3    1   73 1    
     4    1   74 1    
     5    2    3 2    
     6    2    4 am   BACKBONE|DICT|INTERRES
     7    4    5 1    
     8    4   75 1    
     9    5    6 1    
    10    5   35 1    
    11    5   76 1    
    12    6    7 1    
    13    6   77 1    
    14    6   78 1    
    15    7    8 1    
    16    8    9 1    
    17    8   79 1    
    18    8   80 1    
    19    9   10 ar   
    20    9   14 ar   
    21   10   11 ar   
    22   10   81 1    
    23   11   12 ar   
    24   11   71 1    
    25   12   13 ar   
    26   12   82 1    
    27   13   14 ar   
    28   13   15 1    
    29   14   83 1    
    30   15   16 1    
    31   15   84 1    
    32   15   85 1    
    33   16   17 1    
    34   17   18 1    
    35   17   86 1    
    36   17   87 1    
    37   18   19 1    
    38   18   37 1    
    39   18   88 1    
    40   19   20 am   BACKBONE|DICT|INTERRES
    41   19   89 1    
    42   20   21 2    
    43   20   22 1    
    44   22   23 1    
    45   22   24 1    
    46   22   90 1    
    47   23   91 1    
    48   23   92 1    
    49   23   93 1    
    50   24   25 am   BACKBONE|DICT|INTERRES
    51   24   94 1    
    52   25   26 2    
    53   25   27 1    
    54   27   28 1    
    55   27   29 1    
    56   27   95 1    
    57   28   96 1    
    58   28   97 1    
    59   28   98 1    
    60   29   30 am   BACKBONE|DICT|INTERRES
    61   29   99 1    
    62   30   31 2    
    63   30   32 1    
    64   32   33 1    
    65   32   34 1    
    66   32  100 1    
    67   33  101 1    
    68   33  102 1    
    69   33  103 1    
    70   34   35 am   BACKBONE|DICT|INTERRES
    71   34  104 1    
    72   35   36 2    
    73   37   38 2    
    74   37   39 am   BACKBONE|DICT|INTERRES
    75   39   40 1    
    76   39  105 1    
    77   40   41 1    
    78   40   42 1    
    79   40  106 1    
    80   41  107 1    
    81   41  108 1    
    82   41  109 1    
    83   42   43 2    
    84   42   44 am   BACKBONE|DICT|INTERRES
    85   44   45 1    
    86   44  110 1    
    87   45   46 1    
    88   45   47 1    
    89   45  111 1    
    90   46  112 1    
    91   46  113 1    
    92   46  114 1    
    93   47   48 2    
    94   47   49 am   BACKBONE|DICT|INTERRES
    95   49   50 1    
    96   49  115 1    
    97   50   51 1    
    98   50   52 1    
    99   50  116 1    
   100   51  117 1    
   101   51  118 1    
   102   51  119 1    
   103   52   53 2    
   104   52   54 am   BACKBONE|DICT|INTERRES
   105   54   55 1    
   106   54  120 1    
   107   55   56 1    
   108   55   57 1    
   109   55  121 1    
   110   56  122 1    
   111   56  123 1    
   112   56  124 1    
   113   57   58 2    
   114   57   59 am   BACKBONE|DICT|INTERRES
   115   59   60 1    
   116   59  125 1    
   117   60   61 1    
   118   60   62 1    
   119   60  126 1    
   120   61  127 1    
   121   61  128 1    
   122   61  129 1    
   123   62   63 2    
   124   62   64 am   BACKBONE|DICT|INTERRES
   125   64   65 1    
   126   64  130 1    
   127   65   66 1    
   128   65   69 1    
   129   65  131 1    
   130   66   67 am   BACKBONE|DICT|INTERRES
   131   66   68 2    
   132   67  132 1    
   133   67  133 1    
   134   69   70 1    
   135   69  134 1    
   136   69  135 1    
   137   70   71 1    
   138   71  136 1    
   139   71  137 1    
@<TRIPOS>SUBSTRUCTURE
     1 UNK         1 GROUP             0       ****    0 ROOT    
