@<TRIPOS>MOLECULE
3R136
137   139    1
SMALL
USER_CHARGES


@<TRIPOS>ATOM
      1 CA         33.1107   27.0891   -1.1395 C.3       0 UNK        -0.1979 
      2 C          32.5061   25.6928   -1.1894 C.2       0 UNK         0.4864 
      3 O          32.6367   25.0078   -2.2044 O.2       0 UNK        -0.5359 
      4 N          31.8417   25.2818   -0.0994 N.am      1 UNK        -0.4318 
      5 CA         31.1486   23.9968    0.0877 C.3       1 UNK         0.0824 
      6 C6         32.1008   22.7707    0.1468 C.3       12 UNK        -0.0944 
      7 S7         33.2935   22.8540    1.5269 S.3       12 UNK        -0.2672 
      8 C8         32.5600   21.7065    2.7414 C.3       12 UNK         0.0333 
      9 C9         31.8034   22.4592    3.8254 C.ar      12 UNK        -0.0807 
     10 C10        32.4370   22.7522    5.0355 C.ar      12 UNK        -0.0894 
     11 C11        31.7679   23.4634    6.0340 C.ar      12 UNK        -0.0804 
     12 C12        30.4545   23.8858    5.8108 C.ar      12 UNK        -0.0824 
     13 C13        29.8053   23.6112    4.5984 C.ar      12 UNK        -0.0762 
     14 C14        30.4814   22.8686    3.6233 C.ar      12 UNK        -0.0782 
     15 C15        28.3855   24.1071    4.3126 C.3       12 UNK         0.0230 
     16 S16        28.0127   25.7161    5.0918 S.3       12 UNK        -0.2608 
     17 C17        26.8633   26.5045    3.9099 C.3       12 UNK        -0.0989 
     18 CA         27.5530   27.4053    2.8399 C.3       5 UNK         0.0716 
     19 N          26.5953   27.9929    1.8955 N.am      5 UNK        -0.4135 
     20 C          25.6526   28.9048    2.1875 C.2       4 UNK         0.5031 
     21 O          25.5170   29.4003    3.3078 O.2       4 UNK        -0.5229 
     22 CA         24.6939   29.3614    1.0679 C.3       4 UNK         0.0329 
     23 CB         24.6416   30.8941    0.9623 C.3       4 UNK        -0.2001 
     24 N          25.0053   28.8210   -0.2543 N.am      4 UNK        -0.4303 
     25 C          24.6414   27.6169   -0.7108 C.2       3 UNK         0.5044 
     26 O          24.0331   26.7817   -0.0402 O.2       3 UNK        -0.5152 
     27 CA         25.0283   27.2815   -2.1649 C.3       3 UNK         0.0319 
     28 CB         25.5350   28.4950   -2.9803 C.3       3 UNK        -0.2001 
     29 N          26.0021   26.1892   -2.2515 N.am      3 UNK        -0.4354 
     30 C          27.1851   26.1088   -1.6262 C.2       2 UNK         0.4964 
     31 O          27.5907   26.9195   -0.7860 O.2       2 UNK        -0.5047 
     32 CA         28.0751   24.9320   -2.0403 C.3       2 UNK         0.0288 
     33 CB         28.5543   25.0812   -3.4989 C.3       2 UNK        -0.2113 
     34 N          29.2275   24.8827   -1.1489 N.am      2 UNK        -0.4145 
     35 C          29.9837   23.8058   -0.9104 C.2       1 UNK         0.5006 
     36 O          29.7817   22.7073   -1.4336 O.2       1 UNK        -0.5103 
     37 C          28.5045   28.4979    3.3791 C.2       5 UNK         0.5055 
     38 O          29.3600   28.9593    2.6231 O.2       5 UNK        -0.5220 
     39 N          28.3626   28.9023    4.6490 N.am      6 UNK        -0.4450 
     40 CA         29.2246   29.8841    5.3159 C.3       6 UNK         0.0367 
     41 CB         28.8251   29.9994    6.7947 C.3       6 UNK        -0.1929 
     42 C          29.2117   31.2647    4.6390 C.2       6 UNK         0.5070 
     43 O          30.2618   31.8962    4.5262 O.2       6 UNK        -0.5237 
     44 N          28.0416   31.6794    4.1339 N.am      7 UNK        -0.4739 
     45 CA         27.8738   32.9078    3.3497 C.3       7 UNK         0.0276 
     46 CB         26.3945   33.3194    3.3640 C.3       7 UNK        -0.1927 
     47 C          28.4205   32.7993    1.9110 C.2       7 UNK         0.5013 
     48 O          28.6010   33.8300    1.2628 O.2       7 UNK        -0.5193 
     49 N          28.7082   31.5728    1.4518 N.am      8 UNK        -0.4253 
     50 CA         29.4252   31.2713    0.2097 C.3       8 UNK         0.0242 
     51 CB         28.7107   30.1134   -0.5104 C.3       8 UNK        -0.2000 
     52 C          30.9107   30.9432    0.4781 C.2       8 UNK         0.4948 
     53 O          31.5888   30.4510   -0.4247 O.2       8 UNK        -0.5275 
     54 N          31.3897   31.2230    1.7019 N.am      9 UNK        -0.4246 
     55 CA         32.7564   31.0482    2.2013 C.3       9 UNK         0.0261 
     56 CB         33.7578   31.9127    1.4037 C.3       9 UNK        -0.1959 
     57 C          33.2067   29.5807    2.3407 C.2       9 UNK         0.5033 
     58 O          34.4097   29.3141    2.2749 O.2       9 UNK        -0.5390 
     59 N          32.2671   28.6498    2.5744 N.am      10 UNK        -0.4215 
     60 CA         32.5823   27.2620    2.9322 C.3       10 UNK         0.0240 
     61 CB         31.3022   26.4163    2.9528 C.3       10 UNK        -0.1982 
     62 C          33.2811   27.1910    4.3006 C.2       10 UNK         0.4970 
     63 O          32.8370   27.8633    5.2338 O.2       10 UNK        -0.4916 
     64 N          34.3586   26.3964    4.3648 N.am      11 UNK        -0.4279 
     65 CA         35.2660   26.2017    5.5120 C.3       11 UNK         0.1003 
     66 C          35.8401   27.4905    6.1819 C.2       11 UNK         0.5709 
     67 N          35.9011   28.6195    5.4843 N.am      11 UNK        -0.7358 
     68 O          36.2839   27.4626    7.3278 O.2       11 UNK        -0.4999 
     69 C69        34.8001   25.0929    6.5029 C.3       12 UNK        -0.0954 
     70 S70        33.2347   25.4040    7.3911 S.3       12 UNK        -0.2268 
     71 C71        32.4503   23.7597    7.3629 C.3       12 UNK         0.0203 
     72 H72        32.8453   27.6462   -2.0400 H         1 UNK         0.0888 
     73 H73        32.7554   27.6607   -0.2794 H         1 UNK         0.0888 
     74 H74        34.1993   27.0267   -1.0839 H         1 UNK         0.0888 
     75 H75        31.7939   25.9051    0.6925 H         1 UNK         0.3017 
     76 H76        30.6606   24.0733    1.0577 H         1 UNK         0.0873 
     77 H77        32.6644   22.6841   -0.7834 H         1 UNK         0.0745 
     78 H78        31.5346   21.8421    0.2304 H         1 UNK         0.0745 
     79 H79        33.3657   21.1228    3.1892 H         1 UNK         0.0705 
     80 H80        31.9058   20.9803    2.2582 H         1 UNK         0.0705 
     81 H81        33.4529   22.4213    5.1992 H         1 UNK         0.1334 
     82 H82        29.9450   24.4393    6.5870 H         1 UNK         0.1417 
     83 H83        29.9857   22.6248    2.6943 H         1 UNK         0.1562 
     84 H84        27.6668   23.3649    4.6625 H         1 UNK         0.0748 
     85 H85        28.2425   24.1999    3.2348 H         1 UNK         0.0748 
     86 H86        26.1383   27.0790    4.4884 H         1 UNK         0.0940 
     87 H87        26.2813   25.7257    3.4144 H         1 UNK         0.0940 
     88 H88        28.1812   26.7487    2.2363 H         1 UNK         0.0703 
     89 H89        26.6905   27.6841    0.9334 H         1 UNK         0.3081 
     90 H90        23.6973   29.0158    1.3510 H         1 UNK         0.0719 
     91 H91        24.2203   31.3257    1.8702 H         1 UNK         0.0809 
     92 H92        25.6317   31.3259    0.8104 H         1 UNK         0.0809 
     93 H93        24.0040   31.2166    0.1388 H         1 UNK         0.0809 
     94 H94        25.5257   29.4214   -0.8767 H         1 UNK         0.2990 
     95 H95        24.1153   26.9234   -2.6432 H         1 UNK         0.0690 
     96 H96        25.6898   28.2217   -4.0244 H         1 UNK         0.0788 
     97 H97        26.4833   28.8814   -2.6038 H         1 UNK         0.0788 
     98 H98        24.8106   29.3108   -2.9738 H         1 UNK         0.0788 
     99 H99        25.7537   25.4443   -2.8878 H         1 UNK         0.2993 
    100 H100       27.4951   24.0128   -1.9309 H         1 UNK         0.0949 
    101 H101       29.1238   26.0010   -3.6402 H         1 UNK         0.0767 
    102 H102       29.1916   24.2480   -3.7959 H         1 UNK         0.0767 
    103 H103       27.7157   25.1047   -4.1956 H         1 UNK         0.0767 
    104 H104       29.4042   25.7510   -0.6593 H         1 UNK         0.3013 
    105 H105       27.6375   28.4747    5.2071 H         1 UNK         0.3121 
    106 H106       30.2485   29.5054    5.2674 H         1 UNK         0.0774 
    107 H107       28.9224   29.0417    7.3068 H         1 UNK         0.0815 
    108 H108       29.4668   30.7105    7.3170 H         1 UNK         0.0815 
    109 H109       27.7959   30.3414    6.9112 H         1 UNK         0.0815 
    110 H110       27.2293   31.0846    4.2407 H         1 UNK         0.2987 
    111 H111       28.4423   33.7046    3.8353 H         1 UNK         0.0949 
    112 H112       26.0716   33.5870    4.3703 H         1 UNK         0.0806 
    113 H113       26.2163   34.1869    2.7268 H         1 UNK         0.0806 
    114 H114       25.7518   32.5149    3.0151 H         1 UNK         0.0806 
    115 H115       28.5800   30.7809    2.0720 H         1 UNK         0.3010 
    116 H116       29.4075   32.1401   -0.4514 H         1 UNK         0.0829 
    117 H117       27.6627   30.3468   -0.6928 H         1 UNK         0.0813 
    118 H118       29.1687   29.9089   -1.4788 H         1 UNK         0.0813 
    119 H119       28.7551   29.1904    0.0672 H         1 UNK         0.0813 
    120 H120       30.7413   31.5927    2.3866 H         1 UNK         0.3038 
    121 H121       32.7410   31.4378    3.2204 H         1 UNK         0.0769 
    122 H122       34.7379   31.9189    1.8822 H         1 UNK         0.0811 
    123 H123       33.4256   32.9489    1.3392 H         1 UNK         0.0811 
    124 H124       33.8966   31.5393    0.3886 H         1 UNK         0.0811 
    125 H125       31.2895   28.9271    2.6215 H         1 UNK         0.3204 
    126 H126       33.2501   26.8658    2.1643 H         1 UNK         0.0748 
    127 H127       31.5537   25.3578    3.0039 H         1 UNK         0.0771 
    128 H128       30.6869   26.5763    2.0688 H         1 UNK         0.0771 
    129 H129       30.6915   26.6382    3.8288 H         1 UNK         0.0771 
    130 H130       34.6316   25.9034    3.5275 H         1 UNK         0.2980 
    131 H131       36.1581   25.7857    5.0427 H         1 UNK         0.0545 
    132 H132       36.2878   29.4437    5.9156 H         1 UNK         0.3459 
    133 H133       35.5415   28.6622    4.5424 H         1 UNK         0.3459 
    134 H134       34.7121   24.1584    5.9518 H         1 UNK         0.0616 
    135 H135       35.5729   24.9032    7.2494 H         1 UNK         0.0616 
    136 H136       33.1933   22.9947    7.5940 H         1 UNK         0.0634 
    137 H137       31.7135   23.7151    8.1663 H         1 UNK         0.0634 
@<TRIPOS>BOND
     1    1    2 1    
     2    1   72 1    
     3    1   73 1    
     4    1   74 1    
     5    2    3 2    
     6    2    4 am   BACKBONE|DICT|INTERRES
     7    4    5 1    
     8    4   75 1    
     9    5    6 1    
    10    5   35 1    
    11    5   76 1    
    12    6    7 1    
    13    6   77 1    
    14    6   78 1    
    15    7    8 1    
    16    8    9 1    
    17    8   79 1    
    18    8   80 1    
    19    9   10 ar   
    20    9   14 ar   
    21   10   11 ar   
    22   10   81 1    
    23   11   12 ar   
    24   11   71 1    
    25   12   13 ar   
    26   12   82 1    
    27   13   14 ar   
    28   13   15 1    
    29   14   83 1    
    30   15   16 1    
    31   15   84 1    
    32   15   85 1    
    33   16   17 1    
    34   17   18 1    
    35   17   86 1    
    36   17   87 1    
    37   18   19 1    
    38   18   37 1    
    39   18   88 1    
    40   19   20 am   BACKBONE|DICT|INTERRES
    41   19   89 1    
    42   20   21 2    
    43   20   22 1    
    44   22   23 1    
    45   22   24 1    
    46   22   90 1    
    47   23   91 1    
    48   23   92 1    
    49   23   93 1    
    50   24   25 am   BACKBONE|DICT|INTERRES
    51   24   94 1    
    52   25   26 2    
    53   25   27 1    
    54   27   28 1    
    55   27   29 1    
    56   27   95 1    
    57   28   96 1    
    58   28   97 1    
    59   28   98 1    
    60   29   30 am   BACKBONE|DICT|INTERRES
    61   29   99 1    
    62   30   31 2    
    63   30   32 1    
    64   32   33 1    
    65   32   34 1    
    66   32  100 1    
    67   33  101 1    
    68   33  102 1    
    69   33  103 1    
    70   34   35 am   BACKBONE|DICT|INTERRES
    71   34  104 1    
    72   35   36 2    
    73   37   38 2    
    74   37   39 am   BACKBONE|DICT|INTERRES
    75   39   40 1    
    76   39  105 1    
    77   40   41 1    
    78   40   42 1    
    79   40  106 1    
    80   41  107 1    
    81   41  108 1    
    82   41  109 1    
    83   42   43 2    
    84   42   44 am   BACKBONE|DICT|INTERRES
    85   44   45 1    
    86   44  110 1    
    87   45   46 1    
    88   45   47 1    
    89   45  111 1    
    90   46  112 1    
    91   46  113 1    
    92   46  114 1    
    93   47   48 2    
    94   47   49 am   BACKBONE|DICT|INTERRES
    95   49   50 1    
    96   49  115 1    
    97   50   51 1    
    98   50   52 1    
    99   50  116 1    
   100   51  117 1    
   101   51  118 1    
   102   51  119 1    
   103   52   53 2    
   104   52   54 am   BACKBONE|DICT|INTERRES
   105   54   55 1    
   106   54  120 1    
   107   55   56 1    
   108   55   57 1    
   109   55  121 1    
   110   56  122 1    
   111   56  123 1    
   112   56  124 1    
   113   57   58 2    
   114   57   59 am   BACKBONE|DICT|INTERRES
   115   59   60 1    
   116   59  125 1    
   117   60   61 1    
   118   60   62 1    
   119   60  126 1    
   120   61  127 1    
   121   61  128 1    
   122   61  129 1    
   123   62   63 2    
   124   62   64 am   BACKBONE|DICT|INTERRES
   125   64   65 1    
   126   64  130 1    
   127   65   66 1    
   128   65   69 1    
   129   65  131 1    
   130   66   67 am   BACKBONE|DICT|INTERRES
   131   66   68 2    
   132   67  132 1    
   133   67  133 1    
   134   69   70 1    
   135   69  134 1    
   136   69  135 1    
   137   70   71 1    
   138   71  136 1    
   139   71  137 1    
@<TRIPOS>SUBSTRUCTURE
     1 UNK         1 GROUP             0       ****    0 ROOT    
