@<TRIPOS>MOLECULE
3R136
137   139    1
SMALL
USER_CHARGES


@<TRIPOS>ATOM
      1 CA         28.8260   21.2425   -0.0891 C.3       0 UNK        -0.1979 
      2 C          28.5279   22.0275    1.1798 C.2       0 UNK         0.4864 
      3 O          27.9105   21.4879    2.0986 O.2       0 UNK        -0.5359 
      4 N          28.9573   23.2968    1.2219 N.am      1 UNK        -0.4318 
      5 CA         28.7749   24.2526    2.3268 C.3       1 UNK         0.0824 
      6 C6         29.4740   23.8477    3.6602 C.3       12 UNK        -0.0944 
      7 S7         31.2149   23.3164    3.5011 S.3       12 UNK        -0.2672 
      8 C8         32.1347   24.8832    3.7223 C.3       12 UNK         0.0333 
      9 C9         32.2544   25.7630    2.4751 C.ar      12 UNK        -0.0807 
     10 C10        32.6969   27.0812    2.6247 C.ar      12 UNK        -0.0894 
     11 C11        32.8323   27.9264    1.5194 C.ar      12 UNK        -0.0804 
     12 C12        32.5052   27.4517    0.2474 C.ar      12 UNK        -0.0824 
     13 C13        32.0322   26.1473    0.0825 C.ar      12 UNK        -0.0762 
     14 C14        31.9451   25.3009    1.1895 C.ar      12 UNK        -0.0782 
     15 C15        31.5701   25.6526   -1.2783 C.3       12 UNK         0.0230 
     16 S16        29.7599   25.8010   -1.4363 S.3       12 UNK        -0.2608 
     17 C17        29.5973   27.5838   -1.8117 C.3       12 UNK        -0.0989 
     18 CA         28.1844   28.1836   -1.5797 C.3       5 UNK         0.0716 
     19 N          27.1332   27.4474   -2.2739 N.am      5 UNK        -0.4135 
     20 C          26.8940   27.4978   -3.5884 C.2       4 UNK         0.5031 
     21 O          27.5301   28.2052   -4.3716 O.2       4 UNK        -0.5229 
     22 CA         25.7676   26.6070   -4.1402 C.3       4 UNK         0.0329 
     23 CB         26.3593   25.3581   -4.8144 C.3       4 UNK        -0.2001 
     24 N          24.8115   26.1815   -3.1179 N.am      4 UNK        -0.4303 
     25 C          23.8443   26.9413   -2.5929 C.2       3 UNK         0.5044 
     26 O          23.6362   28.1100   -2.9201 O.2       3 UNK        -0.5152 
     27 CA         22.9504   26.2806   -1.5278 C.3       3 UNK         0.0319 
     28 CB         22.2323   25.0315   -2.0799 C.3       3 UNK        -0.2001 
     29 N          23.6328   25.9825   -0.2604 N.am      3 UNK        -0.4354 
     30 C          24.6728   25.1656   -0.0396 C.2       2 UNK         0.4964 
     31 O          25.2715   24.5364   -0.9173 O.2       2 UNK        -0.5047 
     32 CA         25.0885   24.9888    1.4227 C.3       2 UNK         0.0288 
     33 CB         24.2258   23.9021    2.0962 C.3       2 UNK        -0.2113 
     34 N          26.5000   24.6222    1.4561 N.am      2 UNK        -0.4145 
     35 C          27.2873   24.6268    2.5381 C.2       1 UNK         0.5006 
     36 O          26.8728   24.8990    3.6664 O.2       1 UNK        -0.5103 
     37 C          27.8037   28.3469   -0.0962 C.2       5 UNK         0.5055 
     38 O          26.8512   27.7131    0.3675 O.2       5 UNK        -0.5220 
     39 N          28.5195   29.2430    0.5973 N.am      6 UNK        -0.4450 
     40 CA         28.2776   29.6391    1.9874 C.3       6 UNK         0.0367 
     41 CB         29.1526   30.8637    2.3086 C.3       6 UNK        -0.1929 
     42 C          28.5564   28.5175    3.0019 C.2       6 UNK         0.5070 
     43 O          29.3825   27.6436    2.7465 O.2       6 UNK        -0.5237 
     44 N          27.8916   28.5989    4.1613 N.am      7 UNK        -0.4739 
     45 CA         28.0607   27.6579    5.2735 C.3       7 UNK         0.0276 
     46 CB         26.7773   27.6439    6.1197 C.3       7 UNK        -0.1927 
     47 C          29.2861   27.9524    6.1548 C.2       7 UNK         0.5013 
     48 O          29.7307   27.0597    6.8777 O.2       7 UNK        -0.5193 
     49 N          29.7965   29.1905    6.1072 N.am      8 UNK        -0.4253 
     50 CA         30.9639   29.6406    6.8635 C.3       8 UNK         0.0242 
     51 CB         31.0150   31.1790    6.8497 C.3       8 UNK        -0.2000 
     52 C          32.2476   29.0385    6.2755 C.2       8 UNK         0.4948 
     53 O          32.6878   29.4879    5.2181 O.2       8 UNK        -0.5275 
     54 N          32.8299   28.0512    6.9704 N.am      9 UNK        -0.4246 
     55 CA         34.0163   27.2895    6.5528 C.3       9 UNK         0.0261 
     56 CB         34.3082   26.2004    7.5975 C.3       9 UNK        -0.1959 
     57 C          35.2801   28.1309    6.2862 C.2       9 UNK         0.5033 
     58 O          36.1323   27.7026    5.5074 O.2       9 UNK        -0.5390 
     59 N          35.3794   29.3044    6.9253 N.am      10 UNK        -0.4215 
     60 CA         36.4397   30.2899    6.6995 C.3       10 UNK         0.0240 
     61 CB         36.5058   31.2357    7.9107 C.3       10 UNK        -0.1982 
     62 C          36.2617   31.0977    5.3981 C.2       10 UNK         0.4970 
     63 O          37.2329   31.7023    4.9421 O.2       10 UNK        -0.4916 
     64 N          35.0409   31.1167    4.8428 N.am      11 UNK        -0.4279 
     65 CA         34.6380   31.8374    3.6227 C.3       11 UNK         0.1003 
     66 C          34.7387   33.3916    3.7065 C.2       11 UNK         0.5709 
     67 N          34.7907   33.9859    4.8930 N.am      11 UNK        -0.7358 
     68 O          34.7345   34.0767    2.6861 O.2       11 UNK        -0.4999 
     69 C69        35.2738   31.2550    2.3252 C.3       12 UNK        -0.0954 
     70 S70        35.0542   29.4521    2.1421 S.3       12 UNK        -0.2268 
     71 C71        33.2894   29.3633    1.7115 C.3       12 UNK         0.0203 
     72 H72        29.3734   21.8382   -0.8198 H         1 UNK         0.0888 
     73 H73        29.4241   20.3625    0.1467 H         1 UNK         0.0888 
     74 H74        27.8967   20.9100   -0.5511 H         1 UNK         0.0888 
     75 H75        29.4331   23.6736    0.4140 H         1 UNK         0.3017 
     76 H76        29.2466   25.1742    1.9864 H         1 UNK         0.0873 
     77 H77        29.4332   24.6726    4.3730 H         1 UNK         0.0745 
     78 H78        28.9306   23.0260    4.1298 H         1 UNK         0.0745 
     79 H79        31.6774   25.4544    4.5323 H         1 UNK         0.0705 
     80 H80        33.1433   24.6351    4.0551 H         1 UNK         0.0705 
     81 H81        32.9347   27.4628    3.6063 H         1 UNK         0.1334 
     82 H82        32.5922   28.1062   -0.6087 H         1 UNK         0.1417 
     83 H83        31.6054   24.2879    1.0382 H         1 UNK         0.1562 
     84 H84        31.8536   24.6068   -1.4066 H         1 UNK         0.0748 
     85 H85        32.0613   26.2029   -2.0824 H         1 UNK         0.0748 
     86 H86        29.8767   27.7210   -2.8575 H         1 UNK         0.0940 
     87 H87        30.3357   28.1483   -1.2450 H         1 UNK         0.0940 
     88 H88        28.1856   29.1968   -1.9883 H         1 UNK         0.0703 
     89 H89        26.5516   26.8788   -1.6723 H         1 UNK         0.3081 
     90 H90        25.2317   27.1846   -4.8964 H         1 UNK         0.0719 
     91 H91        26.9042   24.7363   -4.1026 H         1 UNK         0.0809 
     92 H92        25.5806   24.7457   -5.2694 H         1 UNK         0.0809 
     93 H93        27.0567   25.6347   -5.6065 H         1 UNK         0.0809 
     94 H94        24.9576   25.2682   -2.6976 H         1 UNK         0.2990 
     95 H95        22.1768   27.0098   -1.2812 H         1 UNK         0.0690 
     96 H96        21.4978   24.6542   -1.3683 H         1 UNK         0.0788 
     97 H97        22.9240   24.2187   -2.3030 H         1 UNK         0.0788 
     98 H98        21.6977   25.2648   -3.0018 H         1 UNK         0.0788 
     99 H99        23.2464   26.4617    0.5416 H         1 UNK         0.2993 
    100 H100       24.9659   25.9414    1.9429 H         1 UNK         0.0949 
    101 H101       24.4643   23.7963    3.1544 H         1 UNK         0.0767 
    102 H102       23.1645   24.1450    2.0311 H         1 UNK         0.0767 
    103 H103       24.3688   22.9293    1.6237 H         1 UNK         0.0767 
    104 H104       26.8893   24.3927    0.5503 H         1 UNK         0.3013 
    105 H105       29.2983   29.6940    0.1416 H         1 UNK         0.3121 
    106 H106       27.2268   29.9253    2.0707 H         1 UNK         0.0774 
    107 H107       28.9623   31.2318    3.3174 H         1 UNK         0.0815 
    108 H108       30.2155   30.6253    2.2459 H         1 UNK         0.0815 
    109 H109       28.9513   31.6886    1.6248 H         1 UNK         0.0815 
    110 H110       27.2270   29.3478    4.2967 H         1 UNK         0.2987 
    111 H111       28.2103   26.6582    4.8672 H         1 UNK         0.0949 
    112 H112       26.5633   28.6227    6.5505 H         1 UNK         0.0806 
    113 H113       25.9165   27.3395    5.5237 H         1 UNK         0.0806 
    114 H114       26.8619   26.9349    6.9446 H         1 UNK         0.0806 
    115 H115       29.3911   29.8473    5.4583 H         1 UNK         0.3010 
    116 H116       30.8569   29.3149    7.9006 H         1 UNK         0.0829 
    117 H117       30.1289   31.6092    7.3167 H         1 UNK         0.0813 
    118 H118       31.8813   31.5456    7.4019 H         1 UNK         0.0813 
    119 H119       31.0847   31.5757    5.8357 H         1 UNK         0.0813 
    120 H120       32.3744   27.7347    7.8153 H         1 UNK         0.3038 
    121 H121       33.7659   26.7914    5.6156 H         1 UNK         0.0769 
    122 H122       34.5302   26.6281    8.5760 H         1 UNK         0.0811 
    123 H123       35.1681   25.5967    7.3032 H         1 UNK         0.0811 
    124 H124       33.4632   25.5206    7.7099 H         1 UNK         0.0811 
    125 H125       34.6413   29.5620    7.5639 H         1 UNK         0.3204 
    126 H126       37.3934   29.7627    6.6269 H         1 UNK         0.0748 
    127 H127       37.3056   31.9683    7.7915 H         1 UNK         0.0771 
    128 H128       35.5752   31.7884    8.0453 H         1 UNK         0.0771 
    129 H129       36.7077   30.6875    8.8313 H         1 UNK         0.0771 
    130 H130       34.3059   30.5416    5.2425 H         1 UNK         0.2980 
    131 H131       33.5647   31.6654    3.5519 H         1 UNK         0.0545 
    132 H132       34.7837   33.4400    5.7388 H         1 UNK         0.3459 
    133 H133       34.8446   34.9911    4.9389 H         1 UNK         0.3459 
    134 H134       34.8526   31.7346    1.4400 H         1 UNK         0.0616 
    135 H135       36.3438   31.4666    2.3030 H         1 UNK         0.0616 
    136 H136       32.6931   29.8147    2.5044 H         1 UNK         0.0634 
    137 H137       33.1082   29.9523    0.8113 H         1 UNK         0.0634 
@<TRIPOS>BOND
     1    1    2 1    
     2    1   72 1    
     3    1   73 1    
     4    1   74 1    
     5    2    3 2    
     6    2    4 am   BACKBONE|DICT|INTERRES
     7    4    5 1    
     8    4   75 1    
     9    5    6 1    
    10    5   35 1    
    11    5   76 1    
    12    6    7 1    
    13    6   77 1    
    14    6   78 1    
    15    7    8 1    
    16    8    9 1    
    17    8   79 1    
    18    8   80 1    
    19    9   10 ar   
    20    9   14 ar   
    21   10   11 ar   
    22   10   81 1    
    23   11   12 ar   
    24   11   71 1    
    25   12   13 ar   
    26   12   82 1    
    27   13   14 ar   
    28   13   15 1    
    29   14   83 1    
    30   15   16 1    
    31   15   84 1    
    32   15   85 1    
    33   16   17 1    
    34   17   18 1    
    35   17   86 1    
    36   17   87 1    
    37   18   19 1    
    38   18   37 1    
    39   18   88 1    
    40   19   20 am   BACKBONE|DICT|INTERRES
    41   19   89 1    
    42   20   21 2    
    43   20   22 1    
    44   22   23 1    
    45   22   24 1    
    46   22   90 1    
    47   23   91 1    
    48   23   92 1    
    49   23   93 1    
    50   24   25 am   BACKBONE|DICT|INTERRES
    51   24   94 1    
    52   25   26 2    
    53   25   27 1    
    54   27   28 1    
    55   27   29 1    
    56   27   95 1    
    57   28   96 1    
    58   28   97 1    
    59   28   98 1    
    60   29   30 am   BACKBONE|DICT|INTERRES
    61   29   99 1    
    62   30   31 2    
    63   30   32 1    
    64   32   33 1    
    65   32   34 1    
    66   32  100 1    
    67   33  101 1    
    68   33  102 1    
    69   33  103 1    
    70   34   35 am   BACKBONE|DICT|INTERRES
    71   34  104 1    
    72   35   36 2    
    73   37   38 2    
    74   37   39 am   BACKBONE|DICT|INTERRES
    75   39   40 1    
    76   39  105 1    
    77   40   41 1    
    78   40   42 1    
    79   40  106 1    
    80   41  107 1    
    81   41  108 1    
    82   41  109 1    
    83   42   43 2    
    84   42   44 am   BACKBONE|DICT|INTERRES
    85   44   45 1    
    86   44  110 1    
    87   45   46 1    
    88   45   47 1    
    89   45  111 1    
    90   46  112 1    
    91   46  113 1    
    92   46  114 1    
    93   47   48 2    
    94   47   49 am   BACKBONE|DICT|INTERRES
    95   49   50 1    
    96   49  115 1    
    97   50   51 1    
    98   50   52 1    
    99   50  116 1    
   100   51  117 1    
   101   51  118 1    
   102   51  119 1    
   103   52   53 2    
   104   52   54 am   BACKBONE|DICT|INTERRES
   105   54   55 1    
   106   54  120 1    
   107   55   56 1    
   108   55   57 1    
   109   55  121 1    
   110   56  122 1    
   111   56  123 1    
   112   56  124 1    
   113   57   58 2    
   114   57   59 am   BACKBONE|DICT|INTERRES
   115   59   60 1    
   116   59  125 1    
   117   60   61 1    
   118   60   62 1    
   119   60  126 1    
   120   61  127 1    
   121   61  128 1    
   122   61  129 1    
   123   62   63 2    
   124   62   64 am   BACKBONE|DICT|INTERRES
   125   64   65 1    
   126   64  130 1    
   127   65   66 1    
   128   65   69 1    
   129   65  131 1    
   130   66   67 am   BACKBONE|DICT|INTERRES
   131   66   68 2    
   132   67  132 1    
   133   67  133 1    
   134   69   70 1    
   135   69  134 1    
   136   69  135 1    
   137   70   71 1    
   138   71  136 1    
   139   71  137 1    
@<TRIPOS>SUBSTRUCTURE
     1 UNK         1 GROUP             0       ****    0 ROOT    
