@<TRIPOS>MOLECULE
3R136
137   139    1
SMALL
USER_CHARGES


@<TRIPOS>ATOM
      1 CA         30.6428   20.8885    7.5527 C.3       0 UNK        -0.1979 
      2 C          29.7452   21.2285    6.3721 C.2       0 UNK         0.4864 
      3 O          28.5262   21.0778    6.4679 O.2       0 UNK        -0.5359 
      4 N          30.3382   21.6754    5.2572 N.am      1 UNK        -0.4318 
      5 CA         29.6286   22.0889    4.0462 C.3       1 UNK         0.0824 
      6 C6         30.5637   22.0692    2.8087 C.3       12 UNK        -0.0944 
      7 S7         29.6765   21.8408    1.2304 S.3       12 UNK        -0.2672 
      8 C8         29.2769   23.5464    0.7278 C.3       12 UNK         0.0333 
      9 C9         30.4901   24.3387    0.2637 C.ar      12 UNK        -0.0807 
     10 C10        31.1800   25.1592    1.1598 C.ar      12 UNK        -0.0894 
     11 C11        32.2445   25.9541    0.7289 C.ar      12 UNK        -0.0804 
     12 C12        32.6122   25.9347   -0.6205 C.ar      12 UNK        -0.0824 
     13 C13        31.9166   25.1314   -1.5318 C.ar      12 UNK        -0.0762 
     14 C14        30.8676   24.3243   -1.0808 C.ar      12 UNK        -0.0782 
     15 C15        32.2776   25.1382   -3.0098 C.3       12 UNK         0.0230 
     16 S16        31.0678   26.0847   -3.9949 S.3       12 UNK        -0.2608 
     17 C17        31.4943   27.8082   -3.5717 C.3       12 UNK        -0.0989 
     18 CA         30.3491   28.5801   -2.8648 C.3       5 UNK         0.0716 
     19 N          29.8671   27.8950   -1.6580 N.am      5 UNK        -0.4135 
     20 C          28.8333   28.2864   -0.8980 C.2       4 UNK         0.5031 
     21 O          28.0871   29.2305   -1.1619 O.2       4 UNK        -0.5229 
     22 CA         28.7197   27.5798    0.4558 C.3       4 UNK         0.0329 
     23 CB         29.6404   28.2670    1.4746 C.3       4 UNK        -0.2001 
     24 N          27.3795   27.5367    1.0264 N.am      4 UNK        -0.4303 
     25 C          26.3440   26.8362    0.5514 C.2       3 UNK         0.5044 
     26 O          26.3341   26.2491   -0.5322 O.2       3 UNK        -0.5152 
     27 CA         25.1657   26.7090    1.5377 C.3       3 UNK         0.0319 
     28 CB         23.9703   25.9118    0.9719 C.3       3 UNK        -0.2001 
     29 N          25.6329   26.1576    2.8235 N.am      3 UNK        -0.4354 
     30 C          26.1903   24.9511    3.0220 C.2       2 UNK         0.4964 
     31 O          26.2221   24.0571    2.1731 O.2       2 UNK        -0.5047 
     32 CA         26.8234   24.7073    4.4034 C.3       2 UNK         0.0288 
     33 CB         25.7381   24.5185    5.4771 C.3       2 UNK        -0.2113 
     34 N          27.6530   23.5017    4.3592 N.am      2 UNK        -0.4145 
     35 C          28.9882   23.4736    4.2720 C.2       1 UNK         0.5006 
     36 O          29.7146   24.4696    4.3534 O.2       1 UNK        -0.5103 
     37 C          30.8174   30.0191   -2.5541 C.2       5 UNK         0.5055 
     38 O          30.5920   30.9247   -3.3575 O.2       5 UNK        -0.5220 
     39 N          31.4528   30.1943   -1.3847 N.am      6 UNK        -0.4450 
     40 CA         31.9156   31.4782   -0.8540 C.3       6 UNK         0.0367 
     41 CB         32.9258   31.2110    0.2751 C.3       6 UNK        -0.1929 
     42 C          30.7776   32.3762   -0.3361 C.2       6 UNK         0.5070 
     43 O          30.9872   33.5819   -0.2035 O.2       6 UNK        -0.5237 
     44 N          29.6179   31.7785   -0.0196 N.am      7 UNK        -0.4739 
     45 CA         28.3693   32.3587    0.5011 C.3       7 UNK         0.0276 
     46 CB         27.7490   33.3327   -0.5185 C.3       7 UNK        -0.1927 
     47 C          28.4583   33.0121    1.8951 C.2       7 UNK         0.5013 
     48 O          27.5278   32.8589    2.6866 O.2       7 UNK        -0.5193 
     49 N          29.5507   33.7332    2.1703 N.am      8 UNK        -0.4253 
     50 CA         29.7860   34.5043    3.3926 C.3       8 UNK         0.0242 
     51 CB         30.9856   35.4394    3.1673 C.3       8 UNK        -0.2000 
     52 C          30.0047   33.6520    4.6548 C.2       8 UNK         0.4948 
     53 O          29.7346   34.1410    5.7531 O.2       8 UNK        -0.5275 
     54 N          30.4934   32.4164    4.4953 N.am      9 UNK        -0.4246 
     55 CA         30.7645   31.4784    5.5806 C.3       9 UNK         0.0261 
     56 CB         32.1303   31.7917    6.2206 C.3       9 UNK        -0.1959 
     57 C          30.7391   30.0496    5.0316 C.2       9 UNK         0.5033 
     58 O          31.0341   29.8455    3.8514 O.2       9 UNK        -0.5390 
     59 N          30.4096   29.0948    5.9090 N.am      10 UNK        -0.4215 
     60 CA         30.4560   27.6555    5.6484 C.3       10 UNK         0.0240 
     61 CB         29.6144   26.9385    6.7192 C.3       10 UNK        -0.1982 
     62 C          31.9029   27.1323    5.6582 C.2       10 UNK         0.4970 
     63 O          32.7597   27.7180    6.3255 O.2       10 UNK        -0.4916 
     64 N          32.1300   26.0154    4.9586 N.am      11 UNK        -0.4279 
     65 CA         33.4137   25.2901    4.9416 C.3       11 UNK         0.1003 
     66 C          33.4679   24.1329    5.9824 C.2       11 UNK         0.5709 
     67 N          32.4165   23.8708    6.7509 N.am      11 UNK        -0.7358 
     68 O          34.4947   23.4721    6.1166 O.2       11 UNK        -0.4999 
     69 C69        33.7853   24.8068    3.5117 C.3       12 UNK        -0.0954 
     70 S70        34.4401   26.1384    2.4477 S.3       12 UNK        -0.2268 
     71 C71        32.9495   26.8782    1.7133 C.3       12 UNK         0.0203 
     72 H72        30.4835   21.6003    8.3622 H         1 UNK         0.0888 
     73 H73        30.4105   19.8912    7.9253 H         1 UNK         0.0888 
     74 H74        31.6980   20.9068    7.2804 H         1 UNK         0.0888 
     75 H75        31.3384   21.8142    5.2503 H         1 UNK         0.3017 
     76 H76        28.8346   21.3586    3.8721 H         1 UNK         0.0873 
     77 H77        31.2069   22.9444    2.7649 H         1 UNK         0.0745 
     78 H78        31.2462   21.2210    2.8845 H         1 UNK         0.0745 
     79 H79        28.5396   23.5053   -0.0756 H         1 UNK         0.0705 
     80 H80        28.7850   24.0721    1.5438 H         1 UNK         0.0705 
     81 H81        30.8681   25.2035    2.1926 H         1 UNK         0.1334 
     82 H82        33.4295   26.5562   -0.9609 H         1 UNK         0.1417 
     83 H83        30.3239   23.7084   -1.7848 H         1 UNK         0.1562 
     84 H84        32.3020   24.1113   -3.3777 H         1 UNK         0.0748 
     85 H85        33.2800   25.5391   -3.1685 H         1 UNK         0.0748 
     86 H86        31.7608   28.3116   -4.5035 H         1 UNK         0.0940 
     87 H87        32.4013   27.8177   -2.9645 H         1 UNK         0.0940 
     88 H88        29.5051   28.6515   -3.5542 H         1 UNK         0.0703 
     89 H89        30.4012   27.0844   -1.3753 H         1 UNK         0.3081 
     90 H90        29.0337   26.5487    0.3160 H         1 UNK         0.0719 
     91 H91        29.2706   29.2542    1.7551 H         1 UNK         0.0809 
     92 H92        29.7291   27.6743    2.3836 H         1 UNK         0.0809 
     93 H93        30.6475   28.4057    1.0842 H         1 UNK         0.0809 
     94 H94        27.2638   28.0034    1.9130 H         1 UNK         0.2990 
     95 H95        24.8147   27.7226    1.7388 H         1 UNK         0.0690 
     96 H96        23.5694   26.3979    0.0818 H         1 UNK         0.0788 
     97 H97        23.1603   25.8440    1.6980 H         1 UNK         0.0788 
     98 H98        24.2490   24.8976    0.6850 H         1 UNK         0.0788 
     99 H99        25.6227   26.8057    3.5993 H         1 UNK         0.2993 
    100 H100       27.4355   25.5744    4.6619 H         1 UNK         0.0949 
    101 H101       25.1192   25.4109    5.5774 H         1 UNK         0.0767 
    102 H102       25.0748   23.6856    5.2394 H         1 UNK         0.0767 
    103 H103       26.1814   24.3234    6.4540 H         1 UNK         0.0767 
    104 H104       27.1483   22.6341    4.2455 H         1 UNK         0.3013 
    105 H105       31.6188   29.3850   -0.8068 H         1 UNK         0.3121 
    106 H106       32.4245   32.0198   -1.6544 H         1 UNK         0.0774 
    107 H107       33.3233   32.1464    0.6717 H         1 UNK         0.0815 
    108 H108       32.4712   30.6731    1.1089 H         1 UNK         0.0815 
    109 H109       33.7751   30.6270   -0.0799 H         1 UNK         0.0815 
    110 H110       29.5594   30.7862   -0.2017 H         1 UNK         0.2987 
    111 H111       27.6818   31.5169    0.6037 H         1 UNK         0.0949 
    112 H112       28.3785   34.2079   -0.6827 H         1 UNK         0.0806 
    113 H113       27.5915   32.8472   -1.4817 H         1 UNK         0.0806 
    114 H114       26.7782   33.6917   -0.1740 H         1 UNK         0.0806 
    115 H115       30.2400   33.8167    1.4249 H         1 UNK         0.3010 
    116 H116       28.9020   35.1207    3.5694 H         1 UNK         0.0829 
    117 H117       30.8081   36.1189    2.3334 H         1 UNK         0.0813 
    118 H118       31.1752   36.0531    4.0493 H         1 UNK         0.0813 
    119 H119       31.8979   34.8801    2.9559 H         1 UNK         0.0813 
    120 H120       30.6558   32.0487    3.5662 H         1 UNK         0.3038 
    121 H121       29.9790   31.5701    6.3342 H         1 UNK         0.0769 
    122 H122       32.9375   31.7324    5.4893 H         1 UNK         0.0811 
    123 H123       32.3622   31.0859    7.0193 H         1 UNK         0.0811 
    124 H124       32.1471   32.7902    6.6576 H         1 UNK         0.0811 
    125 H125       30.2309   29.3649    6.8653 H         1 UNK         0.3204 
    126 H126       30.0177   27.4595    4.6687 H         1 UNK         0.0748 
    127 H127       29.6021   25.8601    6.5627 H         1 UNK         0.0771 
    128 H128       30.0036   27.1138    7.7232 H         1 UNK         0.0771 
    129 H129       28.5776   27.2748    6.6980 H         1 UNK         0.0771 
    130 H130       31.3406   25.5382    4.5326 H         1 UNK         0.2980 
    131 H131       34.2066   25.9689    5.2605 H         1 UNK         0.0545 
    132 H132       31.5754   24.4180    6.6715 H         1 UNK         0.3459 
    133 H133       32.4970   23.1581    7.4571 H         1 UNK         0.3459 
    134 H134       34.5756   24.0552    3.5508 H         1 UNK         0.0616 
    135 H135       32.9453   24.3141    3.0302 H         1 UNK         0.0616 
    136 H136       32.2696   27.1861    2.5075 H         1 UNK         0.0634 
    137 H137       33.2412   27.7972    1.2030 H         1 UNK         0.0634 
@<TRIPOS>BOND
     1    1    2 1    
     2    1   72 1    
     3    1   73 1    
     4    1   74 1    
     5    2    3 2    
     6    2    4 am   BACKBONE|DICT|INTERRES
     7    4    5 1    
     8    4   75 1    
     9    5    6 1    
    10    5   35 1    
    11    5   76 1    
    12    6    7 1    
    13    6   77 1    
    14    6   78 1    
    15    7    8 1    
    16    8    9 1    
    17    8   79 1    
    18    8   80 1    
    19    9   10 ar   
    20    9   14 ar   
    21   10   11 ar   
    22   10   81 1    
    23   11   12 ar   
    24   11   71 1    
    25   12   13 ar   
    26   12   82 1    
    27   13   14 ar   
    28   13   15 1    
    29   14   83 1    
    30   15   16 1    
    31   15   84 1    
    32   15   85 1    
    33   16   17 1    
    34   17   18 1    
    35   17   86 1    
    36   17   87 1    
    37   18   19 1    
    38   18   37 1    
    39   18   88 1    
    40   19   20 am   BACKBONE|DICT|INTERRES
    41   19   89 1    
    42   20   21 2    
    43   20   22 1    
    44   22   23 1    
    45   22   24 1    
    46   22   90 1    
    47   23   91 1    
    48   23   92 1    
    49   23   93 1    
    50   24   25 am   BACKBONE|DICT|INTERRES
    51   24   94 1    
    52   25   26 2    
    53   25   27 1    
    54   27   28 1    
    55   27   29 1    
    56   27   95 1    
    57   28   96 1    
    58   28   97 1    
    59   28   98 1    
    60   29   30 am   BACKBONE|DICT|INTERRES
    61   29   99 1    
    62   30   31 2    
    63   30   32 1    
    64   32   33 1    
    65   32   34 1    
    66   32  100 1    
    67   33  101 1    
    68   33  102 1    
    69   33  103 1    
    70   34   35 am   BACKBONE|DICT|INTERRES
    71   34  104 1    
    72   35   36 2    
    73   37   38 2    
    74   37   39 am   BACKBONE|DICT|INTERRES
    75   39   40 1    
    76   39  105 1    
    77   40   41 1    
    78   40   42 1    
    79   40  106 1    
    80   41  107 1    
    81   41  108 1    
    82   41  109 1    
    83   42   43 2    
    84   42   44 am   BACKBONE|DICT|INTERRES
    85   44   45 1    
    86   44  110 1    
    87   45   46 1    
    88   45   47 1    
    89   45  111 1    
    90   46  112 1    
    91   46  113 1    
    92   46  114 1    
    93   47   48 2    
    94   47   49 am   BACKBONE|DICT|INTERRES
    95   49   50 1    
    96   49  115 1    
    97   50   51 1    
    98   50   52 1    
    99   50  116 1    
   100   51  117 1    
   101   51  118 1    
   102   51  119 1    
   103   52   53 2    
   104   52   54 am   BACKBONE|DICT|INTERRES
   105   54   55 1    
   106   54  120 1    
   107   55   56 1    
   108   55   57 1    
   109   55  121 1    
   110   56  122 1    
   111   56  123 1    
   112   56  124 1    
   113   57   58 2    
   114   57   59 am   BACKBONE|DICT|INTERRES
   115   59   60 1    
   116   59  125 1    
   117   60   61 1    
   118   60   62 1    
   119   60  126 1    
   120   61  127 1    
   121   61  128 1    
   122   61  129 1    
   123   62   63 2    
   124   62   64 am   BACKBONE|DICT|INTERRES
   125   64   65 1    
   126   64  130 1    
   127   65   66 1    
   128   65   69 1    
   129   65  131 1    
   130   66   67 am   BACKBONE|DICT|INTERRES
   131   66   68 2    
   132   67  132 1    
   133   67  133 1    
   134   69   70 1    
   135   69  134 1    
   136   69  135 1    
   137   70   71 1    
   138   71  136 1    
   139   71  137 1    
@<TRIPOS>SUBSTRUCTURE
     1 UNK         1 GROUP             0       ****    0 ROOT    
