@<TRIPOS>MOLECULE
3R136
137   139    1
SMALL
USER_CHARGES


@<TRIPOS>ATOM
      1 CA         27.0046   17.4419   -0.1257 C.3       0 UNK        -0.1979 
      2 C          27.3016   18.9333   -0.0678 C.2       0 UNK         0.4864 
      3 O          27.2242   19.6121   -1.0932 O.2       0 UNK        -0.5359 
      4 N          27.6486   19.4453    1.1204 N.am      1 UNK        -0.4318 
      5 CA         27.8984   20.8667    1.3757 C.3       1 UNK         0.0824 
      6 C6         28.6870   21.0606    2.6958 C.3       12 UNK        -0.0944 
      7 S7         29.5101   22.6848    2.7686 S.3       12 UNK        -0.2672 
      8 C8         31.1930   22.2475    2.2400 C.3       12 UNK         0.0333 
      9 C9         31.9504   23.4918    1.8103 C.ar      12 UNK        -0.0807 
     10 C10        32.6049   24.2824    2.7576 C.ar      12 UNK        -0.0894 
     11 C11        33.2814   25.4405    2.3659 C.ar      12 UNK        -0.0804 
     12 C12        33.2952   25.8059    1.0164 C.ar      12 UNK        -0.0824 
     13 C13        32.6307   25.0339    0.0566 C.ar      12 UNK        -0.0762 
     14 C14        31.9769   23.8634    0.4635 C.ar      12 UNK        -0.0782 
     15 C15        32.6564   25.4959   -1.4021 C.3       12 UNK         0.0230 
     16 S16        31.3264   24.8415   -2.4768 S.3       12 UNK        -0.2608 
     17 C17        29.8084   25.4591   -1.6720 C.3       12 UNK        -0.0989 
     18 CA         29.3142   26.8023   -2.2672 C.3       5 UNK         0.0716 
     19 N          27.8677   26.9719   -2.1135 N.am      5 UNK        -0.4135 
     20 C          27.1277   27.8390   -2.8240 C.2       4 UNK         0.5031 
     21 O          27.5667   28.4991   -3.7667 O.2       4 UNK        -0.5229 
     22 CA         25.6478   28.0139   -2.4289 C.3       4 UNK         0.0329 
     23 CB         24.7451   27.1670   -3.3409 C.3       4 UNK        -0.2001 
     24 N          25.3701   27.6736   -1.0331 N.am      4 UNK        -0.4303 
     25 C          25.8497   28.3259    0.0359 C.2       3 UNK         0.5044 
     26 O          26.4868   29.3766   -0.0343 O.2       3 UNK        -0.5152 
     27 CA         25.6047   27.6801    1.4143 C.3       3 UNK         0.0319 
     28 CB         24.4865   28.4223    2.1638 C.3       3 UNK        -0.2001 
     29 N          25.2869   26.2453    1.3681 N.am      3 UNK        -0.4354 
     30 C          26.0890   25.2853    0.8852 C.2       2 UNK         0.4964 
     31 O          27.1948   25.4966    0.3775 O.2       2 UNK        -0.5047 
     32 CA         25.5226   23.8631    0.8993 C.3       2 UNK         0.0288 
     33 CB         24.6415   23.6170   -0.3404 C.3       2 UNK        -0.2113 
     34 N          26.6334   22.9181    0.9182 N.am      2 UNK        -0.4145 
     35 C          26.5751   21.6633    1.3772 C.2       1 UNK         0.5006 
     36 O          25.5460   21.1417    1.8178 O.2       1 UNK        -0.5103 
     37 C          30.0468   28.0102   -1.6532 C.2       5 UNK         0.5055 
     38 O          30.7844   28.7035   -2.3556 O.2       5 UNK        -0.5220 
     39 N          29.7976   28.2506   -0.3612 N.am      6 UNK        -0.4450 
     40 CA         30.3034   29.3671    0.4274 C.3       6 UNK         0.0367 
     41 CB         31.8128   29.2112    0.6929 C.3       6 UNK        -0.1929 
     42 C          29.5312   29.3887    1.7499 C.2       6 UNK         0.5070 
     43 O          29.0900   28.3347    2.2148 O.2       6 UNK        -0.5237 
     44 N          29.4001   30.5803    2.3406 N.am      7 UNK        -0.4739 
     45 CA         28.8478   30.7721    3.6819 C.3       7 UNK         0.0276 
     46 CB         28.3424   32.2191    3.8054 C.3       7 UNK        -0.1927 
     47 C          29.9189   30.4928    4.7468 C.2       7 UNK         0.5013 
     48 O          31.1106   30.6441    4.4672 O.2       7 UNK        -0.5193 
     49 N          29.4845   30.1740    5.9741 N.am      8 UNK        -0.4253 
     50 CA         30.3567   29.9093    7.1281 C.3       8 UNK         0.0242 
     51 CB         29.4974   29.5556    8.3522 C.3       8 UNK        -0.2000 
     52 C          31.3254   31.0598    7.4645 C.2       8 UNK         0.4948 
     53 O          32.4545   30.7992    7.8797 O.2       8 UNK        -0.5275 
     54 N          30.8865   32.3043    7.2280 N.am      9 UNK        -0.4246 
     55 CA         31.6963   33.5179    7.3573 C.3       9 UNK         0.0261 
     56 CB         30.7754   34.7470    7.2852 C.3       9 UNK        -0.1959 
     57 C          32.8227   33.6296    6.3110 C.2       9 UNK         0.5033 
     58 O          33.8230   34.2933    6.5875 O.2       9 UNK        -0.5390 
     59 N          32.6514   32.9956    5.1415 N.am      10 UNK        -0.4215 
     60 CA         33.6677   32.9128    4.0917 C.3       10 UNK         0.0240 
     61 CB         32.9926   32.8487    2.7115 C.3       10 UNK        -0.1982 
     62 C          34.5952   31.7084    4.3144 C.2       10 UNK         0.4970 
     63 O          35.7987   31.8352    4.0848 O.2       10 UNK        -0.4916 
     64 N          34.0350   30.5784    4.7717 N.am      11 UNK        -0.4279 
     65 CA         34.7914   29.3866    5.1889 C.3       11 UNK         0.1003 
     66 C          35.7271   29.6475    6.4022 C.2       11 UNK         0.5709 
     67 N          35.2687   30.3437    7.4353 N.am      11 UNK        -0.7358 
     68 O          36.8773   29.2152    6.4029 O.2       11 UNK        -0.4999 
     69 C69        33.8718   28.1737    5.4796 C.3       12 UNK        -0.0954 
     70 S70        32.9198   27.6186    4.0287 S.3       12 UNK        -0.2268 
     71 C71        33.9961   26.2912    3.4043 C.3       12 UNK         0.0203 
     72 H72        27.1252   16.9638    0.8462 H         1 UNK         0.0888 
     73 H73        27.6770   16.9523   -0.8298 H         1 UNK         0.0888 
     74 H74        25.9808   17.2765   -0.4601 H         1 UNK         0.0888 
     75 H75        27.6599   18.8452    1.9327 H         1 UNK         0.3017 
     76 H76        28.5141   21.2326    0.5503 H         1 UNK         0.0873 
     77 H77        29.4495   20.2867    2.8008 H         1 UNK         0.0745 
     78 H78        28.0361   20.9518    3.5659 H         1 UNK         0.0745 
     79 H79        31.7144   21.7468    3.0573 H         1 UNK         0.0705 
     80 H80        31.1475   21.5338    1.4156 H         1 UNK         0.0705 
     81 H81        32.5782   24.0010    3.8017 H         1 UNK         0.1334 
     82 H82        33.8174   26.7040    0.7153 H         1 UNK         0.1417 
     83 H83        31.4682   23.2431   -0.2606 H         1 UNK         0.1562 
     84 H84        33.6146   25.2040   -1.8336 H         1 UNK         0.0748 
     85 H85        32.6251   26.5855   -1.4424 H         1 UNK         0.0748 
     86 H86        29.9318   25.5081   -0.5885 H         1 UNK         0.0940 
     87 H87        29.0514   24.6899   -1.8343 H         1 UNK         0.0940 
     88 H88        29.5241   26.7955   -3.3394 H         1 UNK         0.0703 
     89 H89        27.4414   26.4788   -1.3355 H         1 UNK         0.3081 
     90 H90        25.3932   29.0661   -2.5730 H         1 UNK         0.0719 
     91 H91        24.9405   26.1000   -3.2259 H         1 UNK         0.0809 
     92 H92        23.6900   27.3413   -3.1289 H         1 UNK         0.0809 
     93 H93        24.9075   27.4165   -4.3905 H         1 UNK         0.0809 
     94 H94        24.8375   26.8323   -0.8697 H         1 UNK         0.2990 
     95 H95        26.5264   27.7892    1.9875 H         1 UNK         0.0690 
     96 H96        24.3674   28.0420    3.1785 H         1 UNK         0.0788 
     97 H97        23.5271   28.3296    1.6532 H         1 UNK         0.0788 
     98 H98        24.7114   29.4870    2.2447 H         1 UNK         0.0788 
     99 H99        24.3869   25.9783    1.7418 H         1 UNK         0.2993 
    100 H100       24.9286   23.7350    1.8072 H         1 UNK         0.0949 
    101 H101       23.8029   24.3135   -0.3744 H         1 UNK         0.0767 
    102 H102       25.2070   23.7373   -1.2656 H         1 UNK         0.0767 
    103 H103       24.2221   22.6107   -0.3360 H         1 UNK         0.0767 
    104 H104       27.5220   23.3166    0.6393 H         1 UNK         0.3013 
    105 H105       29.1682   27.6475    0.1569 H         1 UNK         0.3121 
    106 H106       30.1126   30.2951   -0.1155 H         1 UNK         0.0774 
    107 H107       32.3931   29.2110   -0.2293 H         1 UNK         0.0815 
    108 H108       32.0203   28.2831    1.2234 H         1 UNK         0.0815 
    109 H109       32.1903   30.0245    1.3119 H         1 UNK         0.0815 
    110 H110       29.8293   31.3874    1.9124 H         1 UNK         0.2987 
    111 H111       28.0101   30.0865    3.8302 H         1 UNK         0.0949 
    112 H112       29.1504   32.9428    3.6878 H         1 UNK         0.0806 
    113 H113       27.5851   32.4383    3.0522 H         1 UNK         0.0806 
    114 H114       27.8851   32.3957    4.7798 H         1 UNK         0.0806 
    115 H115       28.4904   30.0868    6.1310 H         1 UNK         0.3010 
    116 H116       30.9640   29.0380    6.8771 H         1 UNK         0.0829 
    117 H117       28.8839   28.6739    8.1660 H         1 UNK         0.0813 
    118 H118       30.1243   29.3335    9.2172 H         1 UNK         0.0813 
    119 H119       28.8342   30.3749    8.6325 H         1 UNK         0.0813 
    120 H120       29.9399   32.4208    6.8974 H         1 UNK         0.3038 
    121 H121       32.1681   33.5012    8.3423 H         1 UNK         0.0769 
    122 H122       30.2582   34.8096    6.3268 H         1 UNK         0.0811 
    123 H123       31.3457   35.6690    7.4079 H         1 UNK         0.0811 
    124 H124       30.0232   34.7273    8.0740 H         1 UNK         0.0811 
    125 H125       31.8363   32.4051    5.0156 H         1 UNK         0.3204 
    126 H126       34.2840   33.8143    4.1143 H         1 UNK         0.0748 
    127 H127       32.3850   33.7350    2.5283 H         1 UNK         0.0771 
    128 H128       33.7371   32.7954    1.9160 H         1 UNK         0.0771 
    129 H129       32.3481   31.9767    2.6126 H         1 UNK         0.0771 
    130 H130       33.0252   30.5272    4.8593 H         1 UNK         0.2980 
    131 H131       35.4359   29.1134    4.3511 H         1 UNK         0.0545 
    132 H132       35.8751   30.5172    8.2202 H         1 UNK         0.3459 
    133 H133       34.2929   30.6261    7.4793 H         1 UNK         0.3459 
    134 H134       34.4531   27.3311    5.8586 H         1 UNK         0.0616 
    135 H135       33.1638   28.4224    6.2708 H         1 UNK         0.0616 
    136 H136       34.3206   25.6598    4.2327 H         1 UNK         0.0634 
    137 H137       34.8990   26.7309    2.9779 H         1 UNK         0.0634 
@<TRIPOS>BOND
     1    1    2 1    
     2    1   72 1    
     3    1   73 1    
     4    1   74 1    
     5    2    3 2    
     6    2    4 am   BACKBONE|DICT|INTERRES
     7    4    5 1    
     8    4   75 1    
     9    5    6 1    
    10    5   35 1    
    11    5   76 1    
    12    6    7 1    
    13    6   77 1    
    14    6   78 1    
    15    7    8 1    
    16    8    9 1    
    17    8   79 1    
    18    8   80 1    
    19    9   10 ar   
    20    9   14 ar   
    21   10   11 ar   
    22   10   81 1    
    23   11   12 ar   
    24   11   71 1    
    25   12   13 ar   
    26   12   82 1    
    27   13   14 ar   
    28   13   15 1    
    29   14   83 1    
    30   15   16 1    
    31   15   84 1    
    32   15   85 1    
    33   16   17 1    
    34   17   18 1    
    35   17   86 1    
    36   17   87 1    
    37   18   19 1    
    38   18   37 1    
    39   18   88 1    
    40   19   20 am   BACKBONE|DICT|INTERRES
    41   19   89 1    
    42   20   21 2    
    43   20   22 1    
    44   22   23 1    
    45   22   24 1    
    46   22   90 1    
    47   23   91 1    
    48   23   92 1    
    49   23   93 1    
    50   24   25 am   BACKBONE|DICT|INTERRES
    51   24   94 1    
    52   25   26 2    
    53   25   27 1    
    54   27   28 1    
    55   27   29 1    
    56   27   95 1    
    57   28   96 1    
    58   28   97 1    
    59   28   98 1    
    60   29   30 am   BACKBONE|DICT|INTERRES
    61   29   99 1    
    62   30   31 2    
    63   30   32 1    
    64   32   33 1    
    65   32   34 1    
    66   32  100 1    
    67   33  101 1    
    68   33  102 1    
    69   33  103 1    
    70   34   35 am   BACKBONE|DICT|INTERRES
    71   34  104 1    
    72   35   36 2    
    73   37   38 2    
    74   37   39 am   BACKBONE|DICT|INTERRES
    75   39   40 1    
    76   39  105 1    
    77   40   41 1    
    78   40   42 1    
    79   40  106 1    
    80   41  107 1    
    81   41  108 1    
    82   41  109 1    
    83   42   43 2    
    84   42   44 am   BACKBONE|DICT|INTERRES
    85   44   45 1    
    86   44  110 1    
    87   45   46 1    
    88   45   47 1    
    89   45  111 1    
    90   46  112 1    
    91   46  113 1    
    92   46  114 1    
    93   47   48 2    
    94   47   49 am   BACKBONE|DICT|INTERRES
    95   49   50 1    
    96   49  115 1    
    97   50   51 1    
    98   50   52 1    
    99   50  116 1    
   100   51  117 1    
   101   51  118 1    
   102   51  119 1    
   103   52   53 2    
   104   52   54 am   BACKBONE|DICT|INTERRES
   105   54   55 1    
   106   54  120 1    
   107   55   56 1    
   108   55   57 1    
   109   55  121 1    
   110   56  122 1    
   111   56  123 1    
   112   56  124 1    
   113   57   58 2    
   114   57   59 am   BACKBONE|DICT|INTERRES
   115   59   60 1    
   116   59  125 1    
   117   60   61 1    
   118   60   62 1    
   119   60  126 1    
   120   61  127 1    
   121   61  128 1    
   122   61  129 1    
   123   62   63 2    
   124   62   64 am   BACKBONE|DICT|INTERRES
   125   64   65 1    
   126   64  130 1    
   127   65   66 1    
   128   65   69 1    
   129   65  131 1    
   130   66   67 am   BACKBONE|DICT|INTERRES
   131   66   68 2    
   132   67  132 1    
   133   67  133 1    
   134   69   70 1    
   135   69  134 1    
   136   69  135 1    
   137   70   71 1    
   138   71  136 1    
   139   71  137 1    
@<TRIPOS>SUBSTRUCTURE
     1 UNK         1 GROUP             0       ****    0 ROOT    
