@<TRIPOS>MOLECULE
3R136
137   139    1
SMALL
USER_CHARGES


@<TRIPOS>ATOM
      1 CA         28.7490   25.0973   -5.4901 C.3       0 UNK        -0.1979 
      2 C          29.3238   24.5619   -4.1873 C.2       0 UNK         0.4864 
      3 O          29.3682   23.3454   -3.9950 O.2       0 UNK        -0.5359 
      4 N          29.7572   25.4613   -3.2915 N.am      1 UNK        -0.4318 
      5 CA         30.3301   25.2001   -1.9630 C.3       1 UNK         0.0824 
      6 C6         31.6007   24.3067   -2.0034 C.3       12 UNK        -0.0944 
      7 S7         32.6650   24.5300   -0.5403 S.3       12 UNK        -0.2672 
      8 C8         32.2627   23.0540    0.4460 C.3       12 UNK         0.0333 
      9 C9         32.0574   23.3981    1.9143 C.ar      12 UNK        -0.0807 
     10 C10        33.1506   23.7227    2.7221 C.ar      12 UNK        -0.0894 
     11 C11        32.9757   23.9882    4.0840 C.ar      12 UNK        -0.0804 
     12 C12        31.6922   23.9333    4.6384 C.ar      12 UNK        -0.0824 
     13 C13        30.5907   23.6006    3.8420 C.ar      12 UNK        -0.0762 
     14 C14        30.7802   23.3447    2.4797 C.ar      12 UNK        -0.0782 
     15 C15        29.2106   23.4234    4.4623 C.3       12 UNK         0.0230 
     16 S16        27.9555   24.5203    3.7293 S.3       12 UNK        -0.2608 
     17 C17        28.0730   26.0200    4.7702 C.3       12 UNK        -0.0989 
     18 CA         28.4831   27.2922    3.9839 C.3       5 UNK         0.0716 
     19 N          27.7199   27.4334    2.7474 N.am      5 UNK        -0.4135 
     20 C          27.8833   28.3497    1.7850 C.2       4 UNK         0.5031 
     21 O          28.7386   29.2393    1.8156 O.2       4 UNK        -0.5229 
     22 CA         26.9400   28.2361    0.5717 C.3       4 UNK         0.0329 
     23 CB         27.6782   28.5202   -0.7468 C.3       4 UNK        -0.2001 
     24 N          26.3328   26.9018    0.5072 N.am      4 UNK        -0.4303 
     25 C          25.0464   26.6187    0.7617 C.2       3 UNK         0.5044 
     26 O          24.1943   27.4823    0.9726 O.2       3 UNK        -0.5152 
     27 CA         24.6349   25.1332    0.8703 C.3       3 UNK         0.0319 
     28 CB         23.3735   24.8161    0.0387 C.3       3 UNK        -0.2001 
     29 N          25.7178   24.1740    0.6065 N.am      3 UNK        -0.4354 
     30 C          26.3151   23.9209   -0.5658 C.2       2 UNK         0.4964 
     31 O          25.9802   24.4171   -1.6433 O.2       2 UNK        -0.5047 
     32 CA         27.5291   22.9794   -0.5138 C.3       2 UNK         0.0288 
     33 CB         27.1803   21.5987   -1.0908 C.3       2 UNK        -0.2113 
     34 N          28.6544   23.5455   -1.2567 N.am      2 UNK        -0.4145 
     35 C          29.2713   24.6968   -0.9590 C.2       1 UNK         0.5006 
     36 O          29.0057   25.3700    0.0386 O.2       1 UNK        -0.5103 
     37 C          28.3091   28.5480    4.8579 C.2       5 UNK         0.5055 
     38 O          27.1727   28.9166    5.1635 O.2       5 UNK        -0.5220 
     39 N          29.4322   29.1780    5.2191 N.am      6 UNK        -0.4450 
     40 CA         29.5634   30.4414    5.9547 C.3       6 UNK         0.0367 
     41 CB         28.8652   30.3852    7.3301 C.3       6 UNK        -0.1929 
     42 C          29.1621   31.6863    5.1349 C.2       6 UNK         0.5070 
     43 O          29.1094   32.7791    5.7008 O.2       6 UNK        -0.5237 
     44 N          28.9198   31.5214    3.8273 N.am      7 UNK        -0.4739 
     45 CA         28.6777   32.5944    2.8673 C.3       7 UNK         0.0276 
     46 CB         27.3170   32.3740    2.1743 C.3       7 UNK        -0.1927 
     47 C          29.8772   32.6284    1.9109 C.2       7 UNK         0.5013 
     48 O          30.9248   33.1498    2.2948 O.2       7 UNK        -0.5193 
     49 N          29.7286   32.0634    0.7033 N.am      8 UNK        -0.4253 
     50 CA         30.8103   31.9328   -0.2790 C.3       8 UNK         0.0242 
     51 CB         30.2364   31.5717   -1.6583 C.3       8 UNK        -0.2000 
     52 C          31.8732   30.9091    0.1542 C.2       8 UNK         0.4948 
     53 O          33.0610   31.1413   -0.0747 O.2       8 UNK        -0.5275 
     54 N          31.4402   29.8216    0.8068 N.am      9 UNK        -0.4246 
     55 CA         32.3115   28.8611    1.4765 C.3       9 UNK         0.0261 
     56 CB         31.7248   27.4482    1.3220 C.3       9 UNK        -0.1959 
     57 C          32.4198   29.2956    2.9407 C.2       9 UNK         0.5033 
     58 O          31.7232   28.7472    3.7963 O.2       9 UNK        -0.5390 
     59 N          33.2428   30.3219    3.1947 N.am      10 UNK        -0.4215 
     60 CA         33.3872   31.0520    4.4631 C.3       10 UNK         0.0240 
     61 CB         34.1399   32.3671    4.1869 C.3       10 UNK        -0.1982 
     62 C          34.0108   30.2479    5.6295 C.2       10 UNK         0.4970 
     63 O          34.8273   30.7827    6.3819 O.2       10 UNK        -0.4916 
     64 N          33.6152   28.9813    5.7607 N.am      11 UNK        -0.4279 
     65 CA         33.9660   28.0576    6.8411 C.3       11 UNK         0.1003 
     66 C          33.2869   28.4442    8.1825 C.2       11 UNK         0.5709 
     67 N          33.9200   28.1372    9.3065 N.am      11 UNK        -0.7358 
     68 O          32.1819   28.9832    8.2166 O.2       11 UNK        -0.4999 
     69 C69        33.6190   26.6011    6.4399 C.3       12 UNK        -0.0954 
     70 S70        34.5898   26.0482    4.9986 S.3       12 UNK        -0.2268 
     71 C71        34.1877   24.2766    4.9576 C.3       12 UNK         0.0203 
     72 H72        27.7103   24.7856   -5.5962 H         1 UNK         0.0888 
     73 H73        28.7830   26.1857   -5.5357 H         1 UNK         0.0888 
     74 H74        29.3113   24.7048   -6.3370 H         1 UNK         0.0888 
     75 H75        29.6647   26.4417   -3.5194 H         1 UNK         0.3017 
     76 H76        30.6365   26.1856   -1.6098 H         1 UNK         0.0873 
     77 H77        31.3559   23.2530   -2.1462 H         1 UNK         0.0745 
     78 H78        32.2073   24.5811   -2.8678 H         1 UNK         0.0745 
     79 H79        33.0741   22.3314    0.3491 H         1 UNK         0.0705 
     80 H80        31.3721   22.5629    0.0517 H         1 UNK         0.0705 
     81 H81        34.1419   23.7549    2.2906 H         1 UNK         0.1334 
     82 H82        31.5585   24.1166    5.6957 H         1 UNK         0.1417 
     83 H83        29.9306   23.0810    1.8653 H         1 UNK         0.1562 
     84 H84        29.2391   23.5582    5.5445 H         1 UNK         0.0748 
     85 H85        28.8957   22.3917    4.3003 H         1 UNK         0.0748 
     86 H86        28.7751   25.8503    5.5883 H         1 UNK         0.0940 
     87 H87        27.0961   26.1552    5.2396 H         1 UNK         0.0940 
     88 H88        29.5331   27.1897    3.7058 H         1 UNK         0.0703 
     89 H89        26.9951   26.7458    2.6176 H         1 UNK         0.3081 
     90 H90        26.1698   28.9992    0.6981 H         1 UNK         0.0719 
     91 H91        28.5764   27.9107   -0.8502 H         1 UNK         0.0809 
     92 H92        27.0402   28.3313   -1.6102 H         1 UNK         0.0809 
     93 H93        27.9802   29.5652   -0.7932 H         1 UNK         0.0809 
     94 H94        26.9824   26.1393    0.3467 H         1 UNK         0.2990 
     95 H95        24.3713   24.9835    1.9184 H         1 UNK         0.0690 
     96 H96        23.0865   23.7690    0.1346 H         1 UNK         0.0788 
     97 H97        23.5167   25.0308   -1.0205 H         1 UNK         0.0788 
     98 H98        22.5254   25.4145    0.3741 H         1 UNK         0.0788 
     99 H99        26.0863   23.7170    1.4304 H         1 UNK         0.2993 
    100 H100       27.8436   22.8550    0.5245 H         1 UNK         0.0949 
    101 H101       26.8849   21.6641   -2.1391 H         1 UNK         0.0767 
    102 H102       28.0271   20.9153   -1.0232 H         1 UNK         0.0767 
    103 H103       26.3522   21.1448   -0.5448 H         1 UNK         0.0767 
    104 H104       28.8724   23.1304   -2.1590 H         1 UNK         0.3013 
    105 H105       30.3062   28.8417    4.8092 H         1 UNK         0.3121 
    106 H106       30.6307   30.5470    6.1503 H         1 UNK         0.0774 
    107 H107       29.1297   31.2531    7.9351 H         1 UNK         0.0815 
    108 H108       27.7791   30.3767    7.2389 H         1 UNK         0.0815 
    109 H109       29.1665   29.5001    7.8906 H         1 UNK         0.0815 
    110 H110       29.0043   30.5921    3.4293 H         1 UNK         0.2987 
    111 H111       28.6453   33.5651    3.3669 H         1 UNK         0.0949 
    112 H112       27.1354   33.1360    1.4150 H         1 UNK         0.0806 
    113 H113       27.2398   31.3996    1.6939 H         1 UNK         0.0806 
    114 H114       26.5026   32.4433    2.8956 H         1 UNK         0.0806 
    115 H115       28.8451   31.6288    0.4808 H         1 UNK         0.3010 
    116 H116       31.3019   32.9047   -0.3641 H         1 UNK         0.0829 
    117 H117       29.4568   32.2697   -1.9641 H         1 UNK         0.0813 
    118 H118       31.0173   31.6068   -2.4191 H         1 UNK         0.0813 
    119 H119       29.8197   30.5656   -1.6770 H         1 UNK         0.0813 
    120 H120       30.4489   29.7317    1.0162 H         1 UNK         0.3038 
    121 H121       33.3104   28.8612    1.0350 H         1 UNK         0.0769 
    122 H122       32.3374   26.7083    1.8393 H         1 UNK         0.0811 
    123 H123       31.6818   27.1631    0.2731 H         1 UNK         0.0811 
    124 H124       30.7155   27.3691    1.7215 H         1 UNK         0.0811 
    125 H125       33.7576   30.7019    2.4117 H         1 UNK         0.3204 
    126 H126       32.3819   31.3247    4.7867 H         1 UNK         0.0748 
    127 H127       34.1867   32.9913    5.0803 H         1 UNK         0.0771 
    128 H128       35.1643   32.1834    3.8606 H         1 UNK         0.0771 
    129 H129       33.6402   32.9547    3.4159 H         1 UNK         0.0771 
    130 H130       32.9166   28.6472    5.1013 H         1 UNK         0.2980 
    131 H131       35.0458   28.1250    6.9888 H         1 UNK         0.0545 
    132 H132       34.8210   27.6851    9.2922 H         1 UNK         0.3459 
    133 H133       33.4891   28.3678   10.1881 H         1 UNK         0.3459 
    134 H134       32.5564   26.5046    6.2084 H         1 UNK         0.0616 
    135 H135       33.8232   25.9198    7.2679 H         1 UNK         0.0616 
    136 H136       34.0299   23.9007    5.9695 H         1 UNK         0.0634 
    137 H137       35.0533   23.7367    4.5707 H         1 UNK         0.0634 
@<TRIPOS>BOND
     1    1    2 1    
     2    1   72 1    
     3    1   73 1    
     4    1   74 1    
     5    2    3 2    
     6    2    4 am   BACKBONE|DICT|INTERRES
     7    4    5 1    
     8    4   75 1    
     9    5    6 1    
    10    5   35 1    
    11    5   76 1    
    12    6    7 1    
    13    6   77 1    
    14    6   78 1    
    15    7    8 1    
    16    8    9 1    
    17    8   79 1    
    18    8   80 1    
    19    9   10 ar   
    20    9   14 ar   
    21   10   11 ar   
    22   10   81 1    
    23   11   12 ar   
    24   11   71 1    
    25   12   13 ar   
    26   12   82 1    
    27   13   14 ar   
    28   13   15 1    
    29   14   83 1    
    30   15   16 1    
    31   15   84 1    
    32   15   85 1    
    33   16   17 1    
    34   17   18 1    
    35   17   86 1    
    36   17   87 1    
    37   18   19 1    
    38   18   37 1    
    39   18   88 1    
    40   19   20 am   BACKBONE|DICT|INTERRES
    41   19   89 1    
    42   20   21 2    
    43   20   22 1    
    44   22   23 1    
    45   22   24 1    
    46   22   90 1    
    47   23   91 1    
    48   23   92 1    
    49   23   93 1    
    50   24   25 am   BACKBONE|DICT|INTERRES
    51   24   94 1    
    52   25   26 2    
    53   25   27 1    
    54   27   28 1    
    55   27   29 1    
    56   27   95 1    
    57   28   96 1    
    58   28   97 1    
    59   28   98 1    
    60   29   30 am   BACKBONE|DICT|INTERRES
    61   29   99 1    
    62   30   31 2    
    63   30   32 1    
    64   32   33 1    
    65   32   34 1    
    66   32  100 1    
    67   33  101 1    
    68   33  102 1    
    69   33  103 1    
    70   34   35 am   BACKBONE|DICT|INTERRES
    71   34  104 1    
    72   35   36 2    
    73   37   38 2    
    74   37   39 am   BACKBONE|DICT|INTERRES
    75   39   40 1    
    76   39  105 1    
    77   40   41 1    
    78   40   42 1    
    79   40  106 1    
    80   41  107 1    
    81   41  108 1    
    82   41  109 1    
    83   42   43 2    
    84   42   44 am   BACKBONE|DICT|INTERRES
    85   44   45 1    
    86   44  110 1    
    87   45   46 1    
    88   45   47 1    
    89   45  111 1    
    90   46  112 1    
    91   46  113 1    
    92   46  114 1    
    93   47   48 2    
    94   47   49 am   BACKBONE|DICT|INTERRES
    95   49   50 1    
    96   49  115 1    
    97   50   51 1    
    98   50   52 1    
    99   50  116 1    
   100   51  117 1    
   101   51  118 1    
   102   51  119 1    
   103   52   53 2    
   104   52   54 am   BACKBONE|DICT|INTERRES
   105   54   55 1    
   106   54  120 1    
   107   55   56 1    
   108   55   57 1    
   109   55  121 1    
   110   56  122 1    
   111   56  123 1    
   112   56  124 1    
   113   57   58 2    
   114   57   59 am   BACKBONE|DICT|INTERRES
   115   59   60 1    
   116   59  125 1    
   117   60   61 1    
   118   60   62 1    
   119   60  126 1    
   120   61  127 1    
   121   61  128 1    
   122   61  129 1    
   123   62   63 2    
   124   62   64 am   BACKBONE|DICT|INTERRES
   125   64   65 1    
   126   64  130 1    
   127   65   66 1    
   128   65   69 1    
   129   65  131 1    
   130   66   67 am   BACKBONE|DICT|INTERRES
   131   66   68 2    
   132   67  132 1    
   133   67  133 1    
   134   69   70 1    
   135   69  134 1    
   136   69  135 1    
   137   70   71 1    
   138   71  136 1    
   139   71  137 1    
@<TRIPOS>SUBSTRUCTURE
     1 UNK         1 GROUP             0       ****    0 ROOT    
