@<TRIPOS>MOLECULE
3R136
137   139    1
SMALL
USER_CHARGES


@<TRIPOS>ATOM
      1 CA         32.3859   24.4414   -3.6920 C.3       0 UNK        -0.1979 
      2 C          31.4687   24.8600   -2.5526 C.2       0 UNK         0.4864 
      3 O          30.9659   25.9831   -2.5548 O.2       0 UNK        -0.5359 
      4 N          31.2488   23.9646   -1.5806 N.am      1 UNK        -0.4318 
      5 CA         30.4074   24.1939   -0.3994 C.3       1 UNK         0.0824 
      6 C6         30.6199   23.1012    0.6736 C.3       12 UNK        -0.0944 
      7 S7         32.3071   23.0993    1.3619 S.3       12 UNK        -0.2672 
      8 C8         32.0392   22.2880    2.9719 C.3       12 UNK         0.0333 
      9 C9         31.2645   23.1725    3.9394 C.ar      12 UNK        -0.0807 
     10 C10        31.9221   24.1809    4.6479 C.ar      12 UNK        -0.0894 
     11 C11        31.2235   24.9960    5.5472 C.ar      12 UNK        -0.0804 
     12 C12        29.8477   24.8066    5.7128 C.ar      12 UNK        -0.0824 
     13 C13        29.1699   23.8323    4.9715 C.ar      12 UNK        -0.0762 
     14 C14        29.8895   22.9953    4.1158 C.ar      12 UNK        -0.0782 
     15 C15        27.6531   23.7198    5.0386 C.3       12 UNK         0.0230 
     16 S16        26.8629   24.6168    3.6542 S.3       12 UNK        -0.2608 
     17 C17        27.2673   26.3458    4.0718 C.3       12 UNK        -0.0989 
     18 CA         28.5220   26.8513    3.2979 C.3       5 UNK         0.0716 
     19 N          28.2168   27.1846    1.9008 N.am      5 UNK        -0.4135 
     20 C          27.7785   28.3540    1.4047 C.2       4 UNK         0.5031 
     21 O          27.5471   29.3612    2.0774 O.2       4 UNK        -0.5229 
     22 CA         27.5155   28.3949   -0.1048 C.3       4 UNK         0.0329 
     23 CB         28.8206   28.2571   -0.9077 C.3       4 UNK        -0.2001 
     24 N          26.6041   27.3185   -0.4839 N.am      4 UNK        -0.4303 
     25 C          25.3454   27.4793   -0.9111 C.2       3 UNK         0.5044 
     26 O          24.7993   28.5785   -1.0221 O.2       3 UNK        -0.5152 
     27 CA         24.5455   26.2038   -1.2593 C.3       3 UNK         0.0319 
     28 CB         23.6110   26.4092   -2.4711 C.3       3 UNK        -0.2001 
     29 N          25.3676   24.9964   -1.4297 N.am      3 UNK        -0.4354 
     30 C          26.3097   24.7698   -2.3583 C.2       2 UNK         0.4964 
     31 O          26.6085   25.5534   -3.2609 O.2       2 UNK        -0.5047 
     32 CA         27.0727   23.4407   -2.2245 C.3       2 UNK         0.0288 
     33 CB         27.0409   22.6498   -3.5438 C.3       2 UNK        -0.2113 
     34 N          28.4666   23.6153   -1.8040 N.am      2 UNK        -0.4145 
     35 C          28.9024   24.2875   -0.7260 C.2       1 UNK         0.5006 
     36 O          28.1741   24.9346    0.0310 O.2       1 UNK        -0.5103 
     37 C          29.3155   27.9647    4.0237 C.2       5 UNK         0.5055 
     38 O          30.4502   28.2461    3.6337 O.2       5 UNK        -0.5220 
     39 N          28.7221   28.5586    5.0678 N.am      6 UNK        -0.4450 
     40 CA         29.2966   29.6451    5.8608 C.3       6 UNK         0.0367 
     41 CB         28.9612   29.4020    7.3417 C.3       6 UNK        -0.1929 
     42 C          28.7911   31.0311    5.4183 C.2       6 UNK         0.5070 
     43 O          29.3651   32.0323    5.8458 O.2       6 UNK        -0.5237 
     44 N          27.7303   31.0832    4.5968 N.am      7 UNK        -0.4739 
     45 CA         27.1333   32.3242    4.0910 C.3       7 UNK         0.0276 
     46 CB         25.7186   32.0435    3.5579 C.3       7 UNK        -0.1927 
     47 C          28.0137   32.9701    3.0121 C.2       7 UNK         0.5013 
     48 O          28.2868   34.1689    3.0807 O.2       7 UNK        -0.5193 
     49 N          28.4854   32.1424    2.0745 N.am      8 UNK        -0.4253 
     50 CA         29.5658   32.4522    1.1449 C.3       8 UNK         0.0242 
     51 CB         29.0841   32.2176   -0.2979 C.3       8 UNK        -0.2000 
     52 C          30.7285   31.5428    1.5557 C.2       8 UNK         0.4948 
     53 O          30.9356   30.5016    0.9351 O.2       8 UNK        -0.5275 
     54 N          31.3784   31.9290    2.6639 N.am      9 UNK        -0.4246 
     55 CA         32.3043   31.1557    3.4976 C.3       9 UNK         0.0261 
     56 CB         33.0245   32.1132    4.4633 C.3       9 UNK        -0.1959 
     57 C          33.3070   30.2581    2.7501 C.2       9 UNK         0.5033 
     58 O          34.3626   30.7337    2.3258 O.2       9 UNK        -0.5390 
     59 N          32.9624   28.9690    2.6406 N.am      10 UNK        -0.4215 
     60 CA         33.8460   27.9044    2.1634 C.3       10 UNK         0.0240 
     61 CB         32.9927   26.7084    1.7113 C.3       10 UNK        -0.1982 
     62 C          34.8586   27.4784    3.2421 C.2       10 UNK         0.4970 
     63 O          35.9640   27.0547    2.9034 O.2       10 UNK        -0.4916 
     64 N          34.4637   27.6098    4.5146 N.am      11 UNK        -0.4279 
     65 CA         35.3071   27.4118    5.6988 C.3       11 UNK         0.1003 
     66 C          36.3027   28.5882    5.8775 C.2       11 UNK         0.5709 
     67 N          37.5440   28.3039    6.2468 N.am      11 UNK        -0.7358 
     68 O          35.9463   29.7554    5.7268 O.2       11 UNK        -0.4999 
     69 C69        34.4428   27.2231    6.9746 C.3       12 UNK        -0.0954 
     70 S70        33.5444   25.6372    6.9665 S.3       12 UNK        -0.2268 
     71 C71        31.9281   26.1315    6.2820 C.3       12 UNK         0.0203 
     72 H72        31.8506   24.4862   -4.6401 H         1 UNK         0.0888 
     73 H73        33.2407   25.1145   -3.7509 H         1 UNK         0.0888 
     74 H74        32.7619   23.4267   -3.5621 H         1 UNK         0.0888 
     75 H75        31.7161   23.0694   -1.6148 H         1 UNK         0.3017 
     76 H76        30.6948   25.1556    0.0315 H         1 UNK         0.0873 
     77 H77        30.4067   22.1090    0.2710 H         1 UNK         0.0745 
     78 H78        29.9149   23.2554    1.4892 H         1 UNK         0.0745 
     79 H79        31.5236   21.3386    2.8186 H         1 UNK         0.0705 
     80 H80        33.0093   22.0399    3.4052 H         1 UNK         0.0705 
     81 H81        32.9808   24.3351    4.4896 H         1 UNK         0.1334 
     82 H82        29.2954   25.4522    6.3816 H         1 UNK         0.1417 
     83 H83        29.3675   22.2335    3.5526 H         1 UNK         0.1562 
     84 H84        27.2768   24.0985    5.9903 H         1 UNK         0.0748 
     85 H85        27.3597   22.6699    4.9928 H         1 UNK         0.0748 
     86 H86        27.3967   26.3812    5.1538 H         1 UNK         0.0940 
     87 H87        26.4008   26.9726    3.8529 H         1 UNK         0.0940 
     88 H88        29.2328   26.0269    3.2313 H         1 UNK         0.0703 
     89 H89        28.3298   26.4121    1.2517 H         1 UNK         0.3081 
     90 H90        27.0770   29.3669   -0.3391 H         1 UNK         0.0719 
     91 H91        29.5259   29.0476   -0.6578 H         1 UNK         0.0809 
     92 H92        29.3257   27.3109   -0.7183 H         1 UNK         0.0809 
     93 H93        28.6322   28.3196   -1.9796 H         1 UNK         0.0809 
     94 H94        26.9665   26.3734   -0.3974 H         1 UNK         0.2990 
     95 H95        23.9137   26.0103   -0.3913 H         1 UNK         0.0690 
     96 H96        23.0419   25.5061   -2.6916 H         1 UNK         0.0788 
     97 H97        24.1655   26.6846   -3.3687 H         1 UNK         0.0788 
     98 H98        22.8896   27.2047   -2.2803 H         1 UNK         0.0788 
     99 H99        25.2349   24.2914   -0.7171 H         1 UNK         0.2993 
    100 H100       26.5821   22.8330   -1.4614 H         1 UNK         0.0949 
    101 H101       27.5750   23.1708   -4.3398 H         1 UNK         0.0767 
    102 H102       27.4899   21.6630   -3.4279 H         1 UNK         0.0767 
    103 H103       26.0154   22.4995   -3.8841 H         1 UNK         0.0767 
    104 H104       29.1602   23.1462   -2.3670 H         1 UNK         0.3013 
    105 H105       27.7858   28.2748    5.3165 H         1 UNK         0.3121 
    106 H106       30.3834   29.6409    5.7660 H         1 UNK         0.0774 
    107 H107       29.4033   30.1737    7.9736 H         1 UNK         0.0815 
    108 H108       27.8855   29.4116    7.5214 H         1 UNK         0.0815 
    109 H109       29.3515   28.4436    7.6846 H         1 UNK         0.0815 
    110 H110       27.3739   30.2207    4.2071 H         1 UNK         0.2987 
    111 H111       27.0497   33.0308    4.9201 H         1 UNK         0.0949 
    112 H112       25.7264   31.3275    2.7351 H         1 UNK         0.0806 
    113 H113       25.0726   31.6462    4.3408 H         1 UNK         0.0806 
    114 H114       25.2537   32.9586    3.1886 H         1 UNK         0.0806 
    115 H115       28.2104   31.1629    2.1220 H         1 UNK         0.3010 
    116 H116       29.8912   33.4911    1.2347 H         1 UNK         0.0829 
    117 H117       28.6824   31.2151   -0.4347 H         1 UNK         0.0813 
    118 H118       29.9014   32.3455   -1.0086 H         1 UNK         0.0813 
    119 H119       28.3016   32.9261   -0.5692 H         1 UNK         0.0813 
    120 H120       31.0950   32.8124    3.0629 H         1 UNK         0.3038 
    121 H121       31.6840   30.5045    4.1106 H         1 UNK         0.0769 
    122 H122       32.3186   32.6196    5.1222 H         1 UNK         0.0811 
    123 H123       33.5919   32.8746    3.9265 H         1 UNK         0.0811 
    124 H124       33.7272   31.5723    5.0993 H         1 UNK         0.0811 
    125 H125       32.0294   28.6893    2.9501 H         1 UNK         0.3204 
    126 H126       34.4063   28.2729    1.3015 H         1 UNK         0.0748 
    127 H127       32.3998   26.2983    2.5302 H         1 UNK         0.0771 
    128 H128       32.3060   26.9926    0.9135 H         1 UNK         0.0771 
    129 H129       33.6214   25.9042    1.3271 H         1 UNK         0.0771 
    130 H130       33.5520   28.0016    4.6855 H         1 UNK         0.2980 
    131 H131       35.8891   26.5007    5.5436 H         1 UNK         0.0545 
    132 H132       37.8422   27.3509    6.3861 H         1 UNK         0.3459 
    133 H133       38.1985   29.0583    6.3832 H         1 UNK         0.3459 
    134 H134       33.7421   28.0499    7.1059 H         1 UNK         0.0616 
    135 H135       35.0753   27.2191    7.8644 H         1 UNK         0.0616 
    136 H136       32.0515   26.9561    5.5813 H         1 UNK         0.0634 
    137 H137       31.3105   26.5104    7.0976 H         1 UNK         0.0634 
@<TRIPOS>BOND
     1    1    2 1    
     2    1   72 1    
     3    1   73 1    
     4    1   74 1    
     5    2    3 2    
     6    2    4 am   BACKBONE|DICT|INTERRES
     7    4    5 1    
     8    4   75 1    
     9    5    6 1    
    10    5   35 1    
    11    5   76 1    
    12    6    7 1    
    13    6   77 1    
    14    6   78 1    
    15    7    8 1    
    16    8    9 1    
    17    8   79 1    
    18    8   80 1    
    19    9   10 ar   
    20    9   14 ar   
    21   10   11 ar   
    22   10   81 1    
    23   11   12 ar   
    24   11   71 1    
    25   12   13 ar   
    26   12   82 1    
    27   13   14 ar   
    28   13   15 1    
    29   14   83 1    
    30   15   16 1    
    31   15   84 1    
    32   15   85 1    
    33   16   17 1    
    34   17   18 1    
    35   17   86 1    
    36   17   87 1    
    37   18   19 1    
    38   18   37 1    
    39   18   88 1    
    40   19   20 am   BACKBONE|DICT|INTERRES
    41   19   89 1    
    42   20   21 2    
    43   20   22 1    
    44   22   23 1    
    45   22   24 1    
    46   22   90 1    
    47   23   91 1    
    48   23   92 1    
    49   23   93 1    
    50   24   25 am   BACKBONE|DICT|INTERRES
    51   24   94 1    
    52   25   26 2    
    53   25   27 1    
    54   27   28 1    
    55   27   29 1    
    56   27   95 1    
    57   28   96 1    
    58   28   97 1    
    59   28   98 1    
    60   29   30 am   BACKBONE|DICT|INTERRES
    61   29   99 1    
    62   30   31 2    
    63   30   32 1    
    64   32   33 1    
    65   32   34 1    
    66   32  100 1    
    67   33  101 1    
    68   33  102 1    
    69   33  103 1    
    70   34   35 am   BACKBONE|DICT|INTERRES
    71   34  104 1    
    72   35   36 2    
    73   37   38 2    
    74   37   39 am   BACKBONE|DICT|INTERRES
    75   39   40 1    
    76   39  105 1    
    77   40   41 1    
    78   40   42 1    
    79   40  106 1    
    80   41  107 1    
    81   41  108 1    
    82   41  109 1    
    83   42   43 2    
    84   42   44 am   BACKBONE|DICT|INTERRES
    85   44   45 1    
    86   44  110 1    
    87   45   46 1    
    88   45   47 1    
    89   45  111 1    
    90   46  112 1    
    91   46  113 1    
    92   46  114 1    
    93   47   48 2    
    94   47   49 am   BACKBONE|DICT|INTERRES
    95   49   50 1    
    96   49  115 1    
    97   50   51 1    
    98   50   52 1    
    99   50  116 1    
   100   51  117 1    
   101   51  118 1    
   102   51  119 1    
   103   52   53 2    
   104   52   54 am   BACKBONE|DICT|INTERRES
   105   54   55 1    
   106   54  120 1    
   107   55   56 1    
   108   55   57 1    
   109   55  121 1    
   110   56  122 1    
   111   56  123 1    
   112   56  124 1    
   113   57   58 2    
   114   57   59 am   BACKBONE|DICT|INTERRES
   115   59   60 1    
   116   59  125 1    
   117   60   61 1    
   118   60   62 1    
   119   60  126 1    
   120   61  127 1    
   121   61  128 1    
   122   61  129 1    
   123   62   63 2    
   124   62   64 am   BACKBONE|DICT|INTERRES
   125   64   65 1    
   126   64  130 1    
   127   65   66 1    
   128   65   69 1    
   129   65  131 1    
   130   66   67 am   BACKBONE|DICT|INTERRES
   131   66   68 2    
   132   67  132 1    
   133   67  133 1    
   134   69   70 1    
   135   69  134 1    
   136   69  135 1    
   137   70   71 1    
   138   71  136 1    
   139   71  137 1    
@<TRIPOS>SUBSTRUCTURE
     1 UNK         1 GROUP             0       ****    0 ROOT    
