@<TRIPOS>MOLECULE
3R136
137   139    1
SMALL
USER_CHARGES


@<TRIPOS>ATOM
      1 CA         30.8051   26.7696    0.9597 C.3       0 UNK        -0.1979 
      2 C          29.6352   25.8359    0.7164 C.2       0 UNK         0.4864 
      3 O          28.5866   26.2750    0.2469 O.2       0 UNK        -0.5359 
      4 N          29.8121   24.5426    1.0036 N.am      1 UNK        -0.4318 
      5 CA         28.8639   23.4424    0.7766 C.3       1 UNK         0.0824 
      6 C6         29.3872   22.0744    1.3149 C.3       12 UNK        -0.0944 
      7 S7         31.2127   21.9356    1.4372 S.3       12 UNK        -0.2672 
      8 C8         31.5013   22.0567    3.2378 C.3       12 UNK         0.0333 
      9 C9         30.9659   23.3499    3.8454 C.ar      12 UNK        -0.0807 
     10 C10        31.7236   24.5261    3.8167 C.ar      12 UNK        -0.0894 
     11 C11        31.2312   25.7062    4.3915 C.ar      12 UNK        -0.0804 
     12 C12        29.9592   25.7057    4.9759 C.ar      12 UNK        -0.0824 
     13 C13        29.1955   24.5361    5.0112 C.ar      12 UNK        -0.0762 
     14 C14        29.7108   23.3619    4.4595 C.ar      12 UNK        -0.0782 
     15 C15        27.8211   24.5169    5.6613 C.3       12 UNK         0.0230 
     16 S16        26.4932   24.6190    4.4187 S.3       12 UNK        -0.2608 
     17 C17        26.2296   26.4207    4.2689 C.3       12 UNK        -0.0989 
     18 CA         26.7062   27.0154    2.9129 C.3       5 UNK         0.0716 
     19 N          26.1860   26.3305    1.7236 N.am      5 UNK        -0.4135 
     20 C          24.9036   26.1060    1.4054 C.2       4 UNK         0.5031 
     21 O          23.9507   26.4632    2.1001 O.2       4 UNK        -0.5229 
     22 CA         24.6495   25.3659    0.0739 C.3       4 UNK         0.0329 
     23 CB         23.2023   25.5352   -0.4359 C.3       4 UNK        -0.2001 
     24 N          25.6093   25.7045   -0.9868 N.am      4 UNK        -0.4303 
     25 C          25.8626   26.9255   -1.4874 C.2       3 UNK         0.5044 
     26 O          25.3127   27.9473   -1.0772 O.2       3 UNK        -0.5152 
     27 CA         26.9288   27.0359   -2.5955 C.3       3 UNK         0.0319 
     28 CB         27.7213   28.3536   -2.4928 C.3       3 UNK        -0.2001 
     29 N          27.8711   25.9197   -2.5240 N.am      3 UNK        -0.4354 
     30 C          27.9878   24.9234   -3.4123 C.2       2 UNK         0.4964 
     31 O          27.3459   24.8629   -4.4612 O.2       2 UNK        -0.5047 
     32 CA         28.9745   23.7860   -3.0728 C.3       2 UNK         0.0288 
     33 CB         30.2889   23.9681   -3.8491 C.3       2 UNK        -0.2113 
     34 N          29.2790   23.6653   -1.6423 N.am      2 UNK        -0.4145 
     35 C          28.3916   23.3408   -0.6898 C.2       1 UNK         0.5006 
     36 O          27.2203   23.0409   -0.9267 O.2       1 UNK        -0.5103 
     37 C          26.5238   28.5499    2.8575 C.2       5 UNK         0.5055 
     38 O          26.7613   29.2077    3.8721 O.2       5 UNK        -0.5220 
     39 N          26.1407   29.1171    1.6989 N.am      6 UNK        -0.4450 
     40 CA         26.0078   30.5675    1.5078 C.3       6 UNK         0.0367 
     41 CB         25.2866   30.8655    0.1849 C.3       6 UNK        -0.1929 
     42 C          27.3609   31.2959    1.5570 C.2       6 UNK         0.5070 
     43 O          27.4372   32.4044    2.0878 O.2       6 UNK        -0.5237 
     44 N          28.4164   30.6433    1.0513 N.am      7 UNK        -0.4739 
     45 CA         29.8059   31.0950    1.1459 C.3       7 UNK         0.0276 
     46 CB         30.5942   30.5579   -0.0618 C.3       7 UNK        -0.1927 
     47 C          30.4142   30.6812    2.4995 C.2       7 UNK         0.5013 
     48 O          31.3760   29.9119    2.5435 O.2       7 UNK        -0.5193 
     49 N          29.8096   31.1777    3.5860 N.am      8 UNK        -0.4253 
     50 CA         30.2300   30.9539    4.9693 C.3       8 UNK         0.0242 
     51 CB         29.1677   31.5390    5.9131 C.3       8 UNK        -0.2000 
     52 C          31.6092   31.5698    5.2574 C.2       8 UNK         0.4948 
     53 O          31.9843   32.5593    4.6238 O.2       8 UNK        -0.5275 
     54 N          32.3432   30.9659    6.2020 N.am      9 UNK        -0.4246 
     55 CA         33.6890   31.3235    6.6843 C.3       9 UNK         0.0261 
     56 CB         33.7104   32.7365    7.3004 C.3       9 UNK        -0.1959 
     57 C          34.8307   31.1520    5.6614 C.2       9 UNK         0.5033 
     58 O          35.9575   30.8796    6.0769 O.2       9 UNK        -0.5390 
     59 N          34.5381   31.2662    4.3583 N.am      10 UNK        -0.4215 
     60 CA         35.4700   31.0831    3.2375 C.3       10 UNK         0.0240 
     61 CB         34.7328   31.3747    1.9202 C.3       10 UNK        -0.1982 
     62 C          36.1312   29.6920    3.1860 C.2       10 UNK         0.4970 
     63 O          37.2456   29.5707    2.6762 O.2       10 UNK        -0.4916 
     64 N          35.4451   28.6830    3.7341 N.am      11 UNK        -0.4279 
     65 CA         35.9600   27.3306    3.9864 C.3       11 UNK         0.1003 
     66 C          37.0191   27.2269    5.1257 C.2       11 UNK         0.5709 
     67 N          37.2605   28.2599    5.9253 N.am      11 UNK        -0.7358 
     68 O          37.6511   26.1838    5.2762 O.2       11 UNK        -0.4999 
     69 C69        34.8010   26.3140    4.1731 C.3       12 UNK        -0.0954 
     70 S70        33.5582   26.8380    5.4123 S.3       12 UNK        -0.2268 
     71 C71        32.0599   26.9870    4.3881 C.3       12 UNK         0.0203 
     72 H72        30.5203   27.5446    1.6694 H         1 UNK         0.0888 
     73 H73        31.1020   27.2424    0.0252 H         1 UNK         0.0888 
     74 H74        31.6718   26.2395    1.3519 H         1 UNK         0.0888 
     75 H75        30.6872   24.2414    1.4116 H         1 UNK         0.3017 
     76 H76        27.9717   23.6965    1.3536 H         1 UNK         0.0873 
     77 H77        28.9520   21.8815    2.2939 H         1 UNK         0.0745 
     78 H78        29.0333   21.2396    0.7061 H         1 UNK         0.0745 
     79 H79        31.0510   21.1922    3.7283 H         1 UNK         0.0705 
     80 H80        32.5735   21.9830    3.4260 H         1 UNK         0.0705 
     81 H81        32.7012   24.5156    3.3570 H         1 UNK         0.1334 
     82 H82        29.5654   26.6126    5.4140 H         1 UNK         0.1417 
     83 H83        29.1229   22.4554    4.5041 H         1 UNK         0.1562 
     84 H84        27.7235   25.3148    6.3988 H         1 UNK         0.0748 
     85 H85        27.7012   23.5857    6.2172 H         1 UNK         0.0748 
     86 H86        26.7339   26.9208    5.0972 H         1 UNK         0.0940 
     87 H87        25.1669   26.6171    4.4185 H         1 UNK         0.0940 
     88 H88        27.7857   26.8656    2.8733 H         1 UNK         0.0703 
     89 H89        26.9036   26.0740    1.0500 H         1 UNK         0.3081 
     90 H90        24.8006   24.3071    0.2894 H         1 UNK         0.0719 
     91 H91        22.9605   26.5819   -0.6240 H         1 UNK         0.0809 
     92 H92        23.0400   24.9817   -1.3606 H         1 UNK         0.0809 
     93 H93        22.4828   25.1613    0.2936 H         1 UNK         0.0809 
     94 H94        26.1402   24.9226   -1.3517 H         1 UNK         0.2990 
     95 H95        26.3973   27.0286   -3.5488 H         1 UNK         0.0690 
     96 H96        28.4808   28.4197   -3.2718 H         1 UNK         0.0788 
     97 H97        28.2224   28.4475   -1.5286 H         1 UNK         0.0788 
     98 H98        27.0667   29.2183   -2.6085 H         1 UNK         0.0788 
     99 H99        28.4019   25.8751   -1.6592 H         1 UNK         0.2993 
    100 H100       28.5104   22.8510   -3.3943 H         1 UNK         0.0949 
    101 H101       30.1035   24.0293   -4.9225 H         1 UNK         0.0767 
    102 H102       30.8080   24.8815   -3.5554 H         1 UNK         0.0767 
    103 H103       30.9656   23.1286   -3.6872 H         1 UNK         0.0767 
    104 H104       30.2198   23.8948   -1.3557 H         1 UNK         0.3013 
    105 H105       25.9290   28.5306    0.8987 H         1 UNK         0.3121 
    106 H106       25.3925   30.9565    2.3220 H         1 UNK         0.0774 
    107 H107       25.8709   30.5406   -0.6766 H         1 UNK         0.0815 
    108 H108       25.1097   31.9358    0.0714 H         1 UNK         0.0815 
    109 H109       24.3169   30.3695    0.1391 H         1 UNK         0.0815 
    110 H110       28.2655   29.7200    0.6720 H         1 UNK         0.2987 
    111 H111       29.8396   32.1860    1.0999 H         1 UNK         0.0949 
    112 H112       30.5626   29.4714   -0.1142 H         1 UNK         0.0806 
    113 H113       30.1947   30.9474   -0.9983 H         1 UNK         0.0806 
    114 H114       31.6428   30.8542   -0.0090 H         1 UNK         0.0806 
    115 H115       29.0178   31.7923    3.4403 H         1 UNK         0.3010 
    116 H116       30.2844   29.8756    5.1285 H         1 UNK         0.0829 
    117 H117       28.1920   31.0831    5.7407 H         1 UNK         0.0813 
    118 H118       29.4274   31.3609    6.9574 H         1 UNK         0.0813 
    119 H119       29.0625   32.6169    5.7820 H         1 UNK         0.0813 
    120 H120       31.9455   30.1497    6.6470 H         1 UNK         0.3038 
    121 H121       33.9016   30.6176    7.4891 H         1 UNK         0.0769 
    122 H122       33.5364   33.5119    6.5539 H         1 UNK         0.0811 
    123 H123       34.6775   32.9444    7.7603 H         1 UNK         0.0811 
    124 H124       32.9534   32.8423    8.0774 H         1 UNK         0.0811 
    125 H125       33.5948   31.5665    4.1291 H         1 UNK         0.3204 
    126 H126       36.2690   31.8176    3.3562 H         1 UNK         0.0748 
    127 H127       35.4071   31.2895    1.0669 H         1 UNK         0.0771 
    128 H128       33.9099   30.6773    1.7568 H         1 UNK         0.0771 
    129 H129       34.3226   32.3847    1.9087 H         1 UNK         0.0771 
    130 H130       34.5391   28.8806    4.1311 H         1 UNK         0.2980 
    131 H131       36.4950   27.0292    3.0839 H         1 UNK         0.0545 
    132 H132       37.9559   28.1638    6.6474 H         1 UNK         0.3459 
    133 H133       36.7566   29.1363    5.8312 H         1 UNK         0.3459 
    134 H134       34.3140   26.1669    3.2091 H         1 UNK         0.0616 
    135 H135       35.1788   25.3295    4.4547 H         1 UNK         0.0616 
    136 H136       31.4710   27.8170    4.7786 H         1 UNK         0.0634 
    137 H137       32.3247   27.2713    3.3705 H         1 UNK         0.0634 
@<TRIPOS>BOND
     1    1    2 1    
     2    1   72 1    
     3    1   73 1    
     4    1   74 1    
     5    2    3 2    
     6    2    4 am   BACKBONE|DICT|INTERRES
     7    4    5 1    
     8    4   75 1    
     9    5    6 1    
    10    5   35 1    
    11    5   76 1    
    12    6    7 1    
    13    6   77 1    
    14    6   78 1    
    15    7    8 1    
    16    8    9 1    
    17    8   79 1    
    18    8   80 1    
    19    9   10 ar   
    20    9   14 ar   
    21   10   11 ar   
    22   10   81 1    
    23   11   12 ar   
    24   11   71 1    
    25   12   13 ar   
    26   12   82 1    
    27   13   14 ar   
    28   13   15 1    
    29   14   83 1    
    30   15   16 1    
    31   15   84 1    
    32   15   85 1    
    33   16   17 1    
    34   17   18 1    
    35   17   86 1    
    36   17   87 1    
    37   18   19 1    
    38   18   37 1    
    39   18   88 1    
    40   19   20 am   BACKBONE|DICT|INTERRES
    41   19   89 1    
    42   20   21 2    
    43   20   22 1    
    44   22   23 1    
    45   22   24 1    
    46   22   90 1    
    47   23   91 1    
    48   23   92 1    
    49   23   93 1    
    50   24   25 am   BACKBONE|DICT|INTERRES
    51   24   94 1    
    52   25   26 2    
    53   25   27 1    
    54   27   28 1    
    55   27   29 1    
    56   27   95 1    
    57   28   96 1    
    58   28   97 1    
    59   28   98 1    
    60   29   30 am   BACKBONE|DICT|INTERRES
    61   29   99 1    
    62   30   31 2    
    63   30   32 1    
    64   32   33 1    
    65   32   34 1    
    66   32  100 1    
    67   33  101 1    
    68   33  102 1    
    69   33  103 1    
    70   34   35 am   BACKBONE|DICT|INTERRES
    71   34  104 1    
    72   35   36 2    
    73   37   38 2    
    74   37   39 am   BACKBONE|DICT|INTERRES
    75   39   40 1    
    76   39  105 1    
    77   40   41 1    
    78   40   42 1    
    79   40  106 1    
    80   41  107 1    
    81   41  108 1    
    82   41  109 1    
    83   42   43 2    
    84   42   44 am   BACKBONE|DICT|INTERRES
    85   44   45 1    
    86   44  110 1    
    87   45   46 1    
    88   45   47 1    
    89   45  111 1    
    90   46  112 1    
    91   46  113 1    
    92   46  114 1    
    93   47   48 2    
    94   47   49 am   BACKBONE|DICT|INTERRES
    95   49   50 1    
    96   49  115 1    
    97   50   51 1    
    98   50   52 1    
    99   50  116 1    
   100   51  117 1    
   101   51  118 1    
   102   51  119 1    
   103   52   53 2    
   104   52   54 am   BACKBONE|DICT|INTERRES
   105   54   55 1    
   106   54  120 1    
   107   55   56 1    
   108   55   57 1    
   109   55  121 1    
   110   56  122 1    
   111   56  123 1    
   112   56  124 1    
   113   57   58 2    
   114   57   59 am   BACKBONE|DICT|INTERRES
   115   59   60 1    
   116   59  125 1    
   117   60   61 1    
   118   60   62 1    
   119   60  126 1    
   120   61  127 1    
   121   61  128 1    
   122   61  129 1    
   123   62   63 2    
   124   62   64 am   BACKBONE|DICT|INTERRES
   125   64   65 1    
   126   64  130 1    
   127   65   66 1    
   128   65   69 1    
   129   65  131 1    
   130   66   67 am   BACKBONE|DICT|INTERRES
   131   66   68 2    
   132   67  132 1    
   133   67  133 1    
   134   69   70 1    
   135   69  134 1    
   136   69  135 1    
   137   70   71 1    
   138   71  136 1    
   139   71  137 1    
@<TRIPOS>SUBSTRUCTURE
     1 UNK         1 GROUP             0       ****    0 ROOT    
