@<TRIPOS>MOLECULE
3R136
137   139    1
SMALL
USER_CHARGES


@<TRIPOS>ATOM
      1 CA         27.3822   19.0995    3.6376 C.3       0 UNK        -0.1979 
      2 C          27.6077   20.3100    2.7437 C.2       0 UNK         0.4864 
      3 O          27.2700   21.4261    3.1373 O.2       0 UNK        -0.5359 
      4 N          28.1621   20.0883    1.5418 N.am      1 UNK        -0.4318 
      5 CA         28.5209   21.0996    0.5313 C.3       1 UNK         0.0824 
      6 C6         29.5793   22.1241    1.0274 C.3       12 UNK        -0.0944 
      7 S7         31.1297   21.3564    1.6002 S.3       12 UNK        -0.2672 
      8 C8         32.3738   22.3362    0.6887 C.3       12 UNK         0.0333 
      9 C9         32.3472   23.8358    0.9923 C.ar      12 UNK        -0.0807 
     10 C10        32.1351   24.3157    2.2911 C.ar      12 UNK        -0.0894 
     11 C11        32.1585   25.6881    2.5582 C.ar      12 UNK        -0.0804 
     12 C12        32.4017   26.5860    1.5161 C.ar      12 UNK        -0.0824 
     13 C13        32.6123   26.1266    0.2142 C.ar      12 UNK        -0.0762 
     14 C14        32.5811   24.7514   -0.0408 C.ar      12 UNK        -0.0782 
     15 C15        32.9181   27.1104   -0.9077 C.3       12 UNK         0.0230 
     16 S16        31.4346   27.5726   -1.8585 S.3       12 UNK        -0.2608 
     17 C17        30.6929   28.8806   -0.8190 C.3       12 UNK        -0.0989 
     18 CA         29.1472   28.7543   -0.7216 C.3       5 UNK         0.0716 
     19 N          28.7181   27.4455   -0.2109 N.am      5 UNK        -0.4135 
     20 C          28.8331   26.9936    1.0470 C.2       4 UNK         0.5031 
     21 O          29.3393   27.6420    1.9658 O.2       4 UNK        -0.5229 
     22 CA         28.2021   25.6161    1.3218 C.3       4 UNK         0.0329 
     23 CB         27.9561   25.3600    2.8220 C.3       4 UNK        -0.2001 
     24 N          26.9682   25.3687    0.5587 N.am      4 UNK        -0.4303 
     25 C          25.8572   26.1262    0.5382 C.2       3 UNK         0.5044 
     26 O          25.7550   27.2039    1.1265 O.2       3 UNK        -0.5152 
     27 CA         24.6691   25.6383   -0.3140 C.3       3 UNK         0.0319 
     28 CB         24.5513   26.4826   -1.5939 C.3       3 UNK        -0.2001 
     29 N          24.7487   24.2230   -0.6839 N.am      3 UNK        -0.4354 
     30 C          24.5350   23.1956    0.1497 C.2       2 UNK         0.4964 
     31 O          24.1690   23.3254    1.3181 O.2       2 UNK        -0.5047 
     32 CA         24.7986   21.7804   -0.4020 C.3       2 UNK         0.0288 
     33 CB         24.6842   21.6760   -1.9408 C.3       2 UNK        -0.2113 
     34 N          26.0895   21.2534    0.0602 N.am      2 UNK        -0.4145 
     35 C          27.3009   21.8111   -0.1049 C.2       1 UNK         0.5006 
     36 O          27.4811   22.8498   -0.7460 O.2       1 UNK        -0.5103 
     37 C          28.5054   29.9376    0.0473 C.2       5 UNK         0.5055 
     38 O          29.1034   31.0125    0.1160 O.2       5 UNK        -0.5220 
     39 N          27.3339   29.7061    0.6690 N.am      6 UNK        -0.4450 
     40 CA         26.6254   30.5912    1.6041 C.3       6 UNK         0.0367 
     41 CB         26.0675   31.8231    0.8604 C.3       6 UNK        -0.1929 
     42 C          27.4551   30.9865    2.8478 C.2       6 UNK         0.5070 
     43 O          27.1266   31.9811    3.4961 O.2       6 UNK        -0.5237 
     44 N          28.5274   30.2296    3.1411 N.am      7 UNK        -0.4739 
     45 CA         29.5860   30.5168    4.1175 C.3       7 UNK         0.0276 
     46 CB         29.0556   30.3625    5.5576 C.3       7 UNK        -0.1927 
     47 C          30.2929   31.8710    3.8793 C.2       7 UNK         0.5013 
     48 O          30.7609   32.4916    4.8364 O.2       7 UNK        -0.5193 
     49 N          30.3501   32.3224    2.6153 N.am      8 UNK        -0.4253 
     50 CA         30.9248   33.6039    2.2009 C.3       8 UNK         0.0242 
     51 CB         30.4742   33.9189    0.7634 C.3       8 UNK        -0.2000 
     52 C          32.4565   33.6011    2.3370 C.2       8 UNK         0.4948 
     53 O          33.1540   33.2251    1.3930 O.2       8 UNK        -0.5275 
     54 N          32.9358   33.9910    3.5276 N.am      9 UNK        -0.4246 
     55 CA         34.3376   34.0030    3.9654 C.3       9 UNK         0.0261 
     56 CB         35.1512   35.0541    3.1794 C.3       9 UNK        -0.1959 
     57 C          34.9820   32.6013    3.9450 C.2       9 UNK         0.5033 
     58 O          36.1620   32.4703    3.6117 O.2       9 UNK        -0.5390 
     59 N          34.1957   31.5787    4.3017 N.am      10 UNK        -0.4215 
     60 CA         34.5955   30.1764    4.3258 C.3       10 UNK         0.0240 
     61 CB         34.3142   29.5368    2.9548 C.3       10 UNK        -0.1982 
     62 C          33.8168   29.4585    5.4297 C.2       10 UNK         0.4970 
     63 O          32.6547   29.7942    5.6650 O.2       10 UNK        -0.4916 
     64 N          34.4684   28.4739    6.0592 N.am      11 UNK        -0.4279 
     65 CA         33.9186   27.5936    7.1078 C.3       11 UNK         0.1003 
     66 C          33.5659   28.3043    8.4513 C.2       11 UNK         0.5709 
     67 N          34.0565   29.5110    8.7094 N.am      11 UNK        -0.7358 
     68 O          32.8677   27.7424    9.2925 O.2       11 UNK        -0.4999 
     69 C69        32.7716   26.6739    6.5954 C.3       12 UNK        -0.0954 
     70 S70        33.2415   25.7256    5.1076 S.3       12 UNK        -0.2268 
     71 C71        31.9094   26.2055    3.9674 C.3       12 UNK         0.0203 
     72 H72        27.9326   19.2168    4.5708 H         1 UNK         0.0888 
     73 H73        26.3236   19.0008    3.8764 H         1 UNK         0.0888 
     74 H74        27.7114   18.1745    3.1646 H         1 UNK         0.0888 
     75 H75        28.4073   19.1399    1.2917 H         1 UNK         0.3017 
     76 H76        28.9745   20.5429   -0.2900 H         1 UNK         0.0873 
     77 H77        29.1824   22.7253    1.8458 H         1 UNK         0.0745 
     78 H78        29.8271   22.8240    0.2279 H         1 UNK         0.0745 
     79 H79        32.2312   22.1604   -0.3788 H         1 UNK         0.0705 
     80 H80        33.3646   21.9524    0.9341 H         1 UNK         0.0705 
     81 H81        31.9607   23.6227    3.1025 H         1 UNK         0.1334 
     82 H82        32.4193   27.6463    1.7190 H         1 UNK         0.1417 
     83 H83        32.7560   24.3948   -1.0470 H         1 UNK         0.1562 
     84 H84        33.6409   26.6632   -1.5918 H         1 UNK         0.0748 
     85 H85        33.3977   28.0082   -0.5139 H         1 UNK         0.0748 
     86 H86        30.9740   29.8400   -1.2577 H         1 UNK         0.0940 
     87 H87        31.1350   28.8653    0.1775 H         1 UNK         0.0940 
     88 H88        28.7483   28.8241   -1.7347 H         1 UNK         0.0703 
     89 H89        28.2823   26.8369   -0.8882 H         1 UNK         0.3081 
     90 H90        28.9351   24.8914    0.9715 H         1 UNK         0.0719 
     91 H91        27.5257   24.3724    2.9901 H         1 UNK         0.0809 
     92 H92        27.2795   26.0998    3.2513 H         1 UNK         0.0809 
     93 H93        28.8882   25.4046    3.3837 H         1 UNK         0.0809 
     94 H94        26.9706   24.5126    0.0083 H         1 UNK         0.2990 
     95 H95        23.7638   25.7879    0.2781 H         1 UNK         0.0690 
     96 H96        23.6708   26.2035   -2.1731 H         1 UNK         0.0788 
     97 H97        25.4259   26.3696   -2.2358 H         1 UNK         0.0788 
     98 H98        24.4560   27.5432   -1.3561 H         1 UNK         0.0788 
     99 H99        25.0748   24.0132   -1.6168 H         1 UNK         0.2993 
    100 H100       24.0268   21.1395    0.0277 H         1 UNK         0.0949 
    101 H101       25.4739   22.2201   -2.4597 H         1 UNK         0.0767 
    102 H102       24.7412   20.6362   -2.2632 H         1 UNK         0.0767 
    103 H103       23.7271   22.0655   -2.2909 H         1 UNK         0.0767 
    104 H104       26.0415   20.4202    0.6292 H         1 UNK         0.3013 
    105 H105       26.9345   28.7742    0.6027 H         1 UNK         0.3121 
    106 H106       25.7777   30.0158    1.9794 H         1 UNK         0.0774 
    107 H107       25.4149   32.4102    1.5076 H         1 UNK         0.0815 
    108 H108       26.8648   32.4840    0.5188 H         1 UNK         0.0815 
    109 H109       25.4787   31.5293   -0.0084 H         1 UNK         0.0815 
    110 H110       28.6950   29.4025    2.5725 H         1 UNK         0.2987 
    111 H111       30.3505   29.7525    3.9666 H         1 UNK         0.0949 
    112 H112       28.3283   31.1358    5.8061 H         1 UNK         0.0806 
    113 H113       28.5810   29.3923    5.7031 H         1 UNK         0.0806 
    114 H114       29.8691   30.4343    6.2810 H         1 UNK         0.0806 
    115 H115       29.9395   31.7588    1.8775 H         1 UNK         0.3010 
    116 H116       30.5223   34.3850    2.8497 H         1 UNK         0.0829 
    117 H117       29.3876   33.9716    0.6913 H         1 UNK         0.0813 
    118 H118       30.8705   34.8794    0.4318 H         1 UNK         0.0813 
    119 H119       30.8173   33.1625    0.0562 H         1 UNK         0.0813 
    120 H120       32.2548   34.1955    4.2490 H         1 UNK         0.3038 
    121 H121       34.3272   34.3123    5.0116 H         1 UNK         0.0769 
    122 H122       35.2588   34.7807    2.1293 H         1 UNK         0.0811 
    123 H123       34.6800   36.0359    3.2242 H         1 UNK         0.0811 
    124 H124       36.1556   35.1593    3.5914 H         1 UNK         0.0811 
    125 H125       33.2489   31.7585    4.6169 H         1 UNK         0.3204 
    126 H126       35.6623   30.1027    4.5487 H         1 UNK         0.0748 
    127 H127       34.5552   28.4727    2.9586 H         1 UNK         0.0771 
    128 H128       33.2642   29.6387    2.6776 H         1 UNK         0.0771 
    129 H129       34.9109   30.0034    2.1708 H         1 UNK         0.0771 
    130 H130       35.4230   28.2781    5.7951 H         1 UNK         0.2980 
    131 H131       34.7459   26.9350    7.3739 H         1 UNK         0.0545 
    132 H132       34.6397   29.9810    8.0366 H         1 UNK         0.3459 
    133 H133       33.8327   29.9570    9.5849 H         1 UNK         0.3459 
    134 H134       32.4925   25.9493    7.3622 H         1 UNK         0.0616 
    135 H135       31.8739   27.2616    6.3967 H         1 UNK         0.0616 
    136 H136       31.8122   27.2927    3.9637 H         1 UNK         0.0634 
    137 H137       30.9646   25.8108    4.3404 H         1 UNK         0.0634 
@<TRIPOS>BOND
     1    1    2 1    
     2    1   72 1    
     3    1   73 1    
     4    1   74 1    
     5    2    3 2    
     6    2    4 am   BACKBONE|DICT|INTERRES
     7    4    5 1    
     8    4   75 1    
     9    5    6 1    
    10    5   35 1    
    11    5   76 1    
    12    6    7 1    
    13    6   77 1    
    14    6   78 1    
    15    7    8 1    
    16    8    9 1    
    17    8   79 1    
    18    8   80 1    
    19    9   10 ar   
    20    9   14 ar   
    21   10   11 ar   
    22   10   81 1    
    23   11   12 ar   
    24   11   71 1    
    25   12   13 ar   
    26   12   82 1    
    27   13   14 ar   
    28   13   15 1    
    29   14   83 1    
    30   15   16 1    
    31   15   84 1    
    32   15   85 1    
    33   16   17 1    
    34   17   18 1    
    35   17   86 1    
    36   17   87 1    
    37   18   19 1    
    38   18   37 1    
    39   18   88 1    
    40   19   20 am   BACKBONE|DICT|INTERRES
    41   19   89 1    
    42   20   21 2    
    43   20   22 1    
    44   22   23 1    
    45   22   24 1    
    46   22   90 1    
    47   23   91 1    
    48   23   92 1    
    49   23   93 1    
    50   24   25 am   BACKBONE|DICT|INTERRES
    51   24   94 1    
    52   25   26 2    
    53   25   27 1    
    54   27   28 1    
    55   27   29 1    
    56   27   95 1    
    57   28   96 1    
    58   28   97 1    
    59   28   98 1    
    60   29   30 am   BACKBONE|DICT|INTERRES
    61   29   99 1    
    62   30   31 2    
    63   30   32 1    
    64   32   33 1    
    65   32   34 1    
    66   32  100 1    
    67   33  101 1    
    68   33  102 1    
    69   33  103 1    
    70   34   35 am   BACKBONE|DICT|INTERRES
    71   34  104 1    
    72   35   36 2    
    73   37   38 2    
    74   37   39 am   BACKBONE|DICT|INTERRES
    75   39   40 1    
    76   39  105 1    
    77   40   41 1    
    78   40   42 1    
    79   40  106 1    
    80   41  107 1    
    81   41  108 1    
    82   41  109 1    
    83   42   43 2    
    84   42   44 am   BACKBONE|DICT|INTERRES
    85   44   45 1    
    86   44  110 1    
    87   45   46 1    
    88   45   47 1    
    89   45  111 1    
    90   46  112 1    
    91   46  113 1    
    92   46  114 1    
    93   47   48 2    
    94   47   49 am   BACKBONE|DICT|INTERRES
    95   49   50 1    
    96   49  115 1    
    97   50   51 1    
    98   50   52 1    
    99   50  116 1    
   100   51  117 1    
   101   51  118 1    
   102   51  119 1    
   103   52   53 2    
   104   52   54 am   BACKBONE|DICT|INTERRES
   105   54   55 1    
   106   54  120 1    
   107   55   56 1    
   108   55   57 1    
   109   55  121 1    
   110   56  122 1    
   111   56  123 1    
   112   56  124 1    
   113   57   58 2    
   114   57   59 am   BACKBONE|DICT|INTERRES
   115   59   60 1    
   116   59  125 1    
   117   60   61 1    
   118   60   62 1    
   119   60  126 1    
   120   61  127 1    
   121   61  128 1    
   122   61  129 1    
   123   62   63 2    
   124   62   64 am   BACKBONE|DICT|INTERRES
   125   64   65 1    
   126   64  130 1    
   127   65   66 1    
   128   65   69 1    
   129   65  131 1    
   130   66   67 am   BACKBONE|DICT|INTERRES
   131   66   68 2    
   132   67  132 1    
   133   67  133 1    
   134   69   70 1    
   135   69  134 1    
   136   69  135 1    
   137   70   71 1    
   138   71  136 1    
   139   71  137 1    
@<TRIPOS>SUBSTRUCTURE
     1 UNK         1 GROUP             0       ****    0 ROOT    
