@<TRIPOS>MOLECULE
3R136
137   139    1
SMALL
USER_CHARGES


@<TRIPOS>ATOM
      1 CA         29.5650   29.3358   -2.6359 C.3       0 UNK        -0.1979 
      2 C          29.6281   27.8498   -2.3194 C.2       0 UNK         0.4864 
      3 O          29.9043   27.0550   -3.2190 O.2       0 UNK        -0.5359 
      4 N          29.3502   27.4697   -1.0636 N.am      1 UNK        -0.4318 
      5 CA         29.3582   26.1152   -0.4827 C.3       1 UNK         0.0824 
      6 C6         30.7554   25.4465   -0.4795 C.3       12 UNK        -0.0944 
      7 S7         31.9710   26.3851    0.5064 S.3       12 UNK        -0.2672 
      8 C8         32.9746   25.0412    1.2155 C.3       12 UNK         0.0333 
      9 C9         32.5409   24.6736    2.6288 C.ar      12 UNK        -0.0807 
     10 C10        33.2729   25.1489    3.7214 C.ar      12 UNK        -0.0894 
     11 C11        32.9292   24.7792    5.0242 C.ar      12 UNK        -0.0804 
     12 C12        31.8261   23.9488    5.2349 C.ar      12 UNK        -0.0824 
     13 C13        31.0795   23.4700    4.1534 C.ar      12 UNK        -0.0762 
     14 C14        31.4464   23.8292    2.8510 C.ar      12 UNK        -0.0782 
     15 C15        29.9024   22.5336    4.4051 C.3       12 UNK         0.0230 
     16 S16        28.3071   23.1862    3.8101 S.3       12 UNK        -0.2608 
     17 C17        28.1857   24.8071    4.6439 C.3       12 UNK        -0.0989 
     18 CA         27.8942   25.9244    3.6142 C.3       5 UNK         0.0716 
     19 N          26.5698   25.7529    2.9943 N.am      5 UNK        -0.4135 
     20 C          26.1371   26.4284    1.9245 C.2       4 UNK         0.5031 
     21 O          26.7959   27.3012    1.3556 O.2       4 UNK        -0.5229 
     22 CA         24.7161   26.1361    1.4380 C.3       4 UNK         0.0329 
     23 CB         23.7043   27.0328    2.1791 C.3       4 UNK        -0.2001 
     24 N          24.7084   26.4112    0.0077 N.am      4 UNK        -0.4303 
     25 C          23.7408   26.1467   -0.8745 C.2       3 UNK         0.5044 
     26 O          22.6471   25.6594   -0.5867 O.2       3 UNK        -0.5152 
     27 CA         24.0810   26.4568   -2.3418 C.3       3 UNK         0.0319 
     28 CB         24.0198   27.9699   -2.6121 C.3       3 UNK        -0.2001 
     29 N          25.4052   25.9447   -2.7075 N.am      3 UNK        -0.4354 
     30 C          25.6986   24.6434   -2.8505 C.2       2 UNK         0.4964 
     31 O          24.8660   23.7388   -2.7796 O.2       2 UNK        -0.5047 
     32 CA         27.1710   24.2874   -3.1118 C.3       2 UNK         0.0288 
     33 CB         27.4852   24.3474   -4.6154 C.3       2 UNK        -0.2113 
     34 N          28.1107   25.1446   -2.3854 N.am      2 UNK        -0.4145 
     35 C          28.2942   25.1522   -1.0590 C.2       1 UNK         0.5006 
     36 O          27.6674   24.4228   -0.2899 O.2       1 UNK        -0.5103 
     37 C          28.1085   27.3274    4.2267 C.2       5 UNK         0.5055 
     38 O          29.2542   27.7231    4.4357 O.2       5 UNK        -0.5220 
     39 N          27.0156   28.0599    4.4865 N.am      6 UNK        -0.4450 
     40 CA         27.0287   29.4609    4.9063 C.3       6 UNK         0.0367 
     41 CB         25.6640   29.8101    5.5225 C.3       6 UNK        -0.1929 
     42 C          27.3654   30.4393    3.7636 C.2       6 UNK         0.5070 
     43 O          27.7849   31.5605    4.0529 O.2       6 UNK        -0.5237 
     44 N          27.1712   30.0312    2.4995 N.am      7 UNK        -0.4739 
     45 CA         27.5322   30.8250    1.3251 C.3       7 UNK         0.0276 
     46 CB         26.6900   30.3842    0.1151 C.3       7 UNK        -0.1927 
     47 C          29.0282   30.6417    1.0476 C.2       7 UNK         0.5013 
     48 O          29.4791   29.4998    0.9323 O.2       7 UNK        -0.5193 
     49 N          29.7641   31.7566    0.9486 N.am      8 UNK        -0.4253 
     50 CA         31.2248   31.8734    0.8165 C.3       8 UNK         0.0242 
     51 CB         31.7618   31.1808   -0.4525 C.3       8 UNK        -0.2000 
     52 C          31.9853   31.4221    2.0760 C.2       8 UNK         0.4948 
     53 O          32.7249   32.2276    2.6421 O.2       8 UNK        -0.5275 
     54 N          31.7611   30.1719    2.5036 N.am      9 UNK        -0.4246 
     55 CA         32.2996   29.5108    3.6944 C.3       9 UNK         0.0261 
     56 CB         31.7123   30.1407    4.9783 C.3       9 UNK        -0.1959 
     57 C          33.8382   29.4447    3.6901 C.2       9 UNK         0.5033 
     58 O          34.3947   28.5001    3.1294 O.2       9 UNK        -0.5390 
     59 N          34.4876   30.4318    4.3291 N.am      10 UNK        -0.4215 
     60 CA         35.9345   30.5464    4.5688 C.3       10 UNK         0.0240 
     61 CB         36.7019   30.7405    3.2431 C.3       10 UNK        -0.1982 
     62 C          36.4898   29.3899    5.4265 C.2       10 UNK         0.4970 
     63 O          37.6224   28.9500    5.2187 O.2       10 UNK        -0.4916 
     64 N          35.6637   28.9116    6.3640 N.am      11 UNK        -0.4279 
     65 CA         35.9393   27.7779    7.2527 C.3       11 UNK         0.1003 
     66 C          37.0342   28.0894    8.3085 C.2       11 UNK         0.5709 
     67 N          37.7871   27.0846    8.7354 N.am      11 UNK        -0.7358 
     68 O          37.1810   29.2196    8.7719 O.2       11 UNK        -0.4999 
     69 C69        34.6397   27.2649    7.9310 C.3       12 UNK        -0.0954 
     70 S70        33.2998   26.9095    6.7421 S.3       12 UNK        -0.2268 
     71 C71        33.7762   25.2451    6.1973 C.3       12 UNK         0.0203 
     72 H72        30.5518   29.6978   -2.9223 H         1 UNK         0.0888 
     73 H73        28.8833   29.5131   -3.4671 H         1 UNK         0.0888 
     74 H74        29.2177   29.9216   -1.7873 H         1 UNK         0.0888 
     75 H75        29.1930   28.1974   -0.3676 H         1 UNK         0.3017 
     76 H76        29.0794   26.2660    0.5600 H         1 UNK         0.0873 
     77 H77        30.6843   24.4353   -0.0766 H         1 UNK         0.0745 
     78 H78        31.1400   25.3392   -1.4950 H         1 UNK         0.0745 
     79 H79        34.0161   25.3666    1.2208 H         1 UNK         0.0705 
     80 H80        32.9451   24.1611    0.5716 H         1 UNK         0.0705 
     81 H81        34.1239   25.7972    3.5585 H         1 UNK         0.1334 
     82 H82        31.5596   23.6635    6.2436 H         1 UNK         0.1417 
     83 H83        30.8786   23.4463    2.0148 H         1 UNK         0.1562 
     84 H84        29.8069   22.3076    5.4684 H         1 UNK         0.0748 
     85 H85        30.0972   21.5816    3.9096 H         1 UNK         0.0748 
     86 H86        29.1121   25.0112    5.1834 H         1 UNK         0.0940 
     87 H87        27.4024   24.7603    5.4026 H         1 UNK         0.0940 
     88 H88        28.6365   25.8397    2.8178 H         1 UNK         0.0703 
     89 H89        25.9795   25.0407    3.3994 H         1 UNK         0.3081 
     90 H90        24.4831   25.0818    1.5992 H         1 UNK         0.0719 
     91 H91        23.9105   28.0915    2.0149 H         1 UNK         0.0809 
     92 H92        22.6819   26.8391    1.8551 H         1 UNK         0.0809 
     93 H93        23.7351   26.8553    3.2547 H         1 UNK         0.0809 
     94 H94        25.5797   26.8107   -0.3180 H         1 UNK         0.2990 
     95 H95        23.3351   25.9674   -2.9720 H         1 UNK         0.0690 
     96 H96        24.1900   28.1907   -3.6660 H         1 UNK         0.0788 
     97 H97        24.7603   28.5204   -2.0303 H         1 UNK         0.0788 
     98 H98        23.0389   28.3710   -2.3531 H         1 UNK         0.0788 
     99 H99        26.1510   26.6176   -2.8039 H         1 UNK         0.2993 
    100 H100       27.3241   23.2611   -2.7708 H         1 UNK         0.0949 
    101 H101       28.5016   24.0106   -4.8207 H         1 UNK         0.0767 
    102 H102       26.8105   23.7039   -5.1819 H         1 UNK         0.0767 
    103 H103       27.3818   25.3591   -5.0102 H         1 UNK         0.0767 
    104 H104       28.7031   25.7690   -2.9324 H         1 UNK         0.3013 
    105 H105       26.1128   27.6505    4.3008 H         1 UNK         0.3121 
    106 H106       27.7933   29.5830    5.6768 H         1 UNK         0.0774 
    107 H107       25.6493   30.8418    5.8769 H         1 UNK         0.0815 
    108 H108       24.8542   29.7033    4.7995 H         1 UNK         0.0815 
    109 H109       25.4390   29.1732    6.3781 H         1 UNK         0.0815 
    110 H110       26.9280   29.0628    2.3168 H         1 UNK         0.2987 
    111 H111       27.3179   31.8777    1.5230 H         1 UNK         0.0949 
    112 H112       26.9195   29.3650   -0.1955 H         1 UNK         0.0806 
    113 H113       25.6232   30.4340    0.3335 H         1 UNK         0.0806 
    114 H114       26.8768   31.0313   -0.7426 H         1 UNK         0.0806 
    115 H115       29.2867   32.6381    1.0798 H         1 UNK         0.3010 
    116 H116       31.4210   32.9409    0.7025 H         1 UNK         0.0829 
    117 H117       31.6238   30.0996   -0.4277 H         1 UNK         0.0813 
    118 H118       31.2725   31.5649   -1.3470 H         1 UNK         0.0813 
    119 H119       32.8311   31.3629   -0.5671 H         1 UNK         0.0813 
    120 H120       31.1079   29.6183    1.9541 H         1 UNK         0.3038 
    121 H121       31.9482   28.4778    3.6523 H         1 UNK         0.0769 
    122 H122       30.6275   30.0342    4.9975 H         1 UNK         0.0811 
    123 H123       31.9340   31.2041    5.0678 H         1 UNK         0.0811 
    124 H124       32.0955   29.6437    5.8700 H         1 UNK         0.0811 
    125 H125       33.9226   31.1902    4.6872 H         1 UNK         0.3204 
    126 H126       36.0733   31.4516    5.1617 H         1 UNK         0.0748 
    127 H127       37.7518   30.9704    3.4285 H         1 UNK         0.0771 
    128 H128       36.6706   29.8450    2.6216 H         1 UNK         0.0771 
    129 H129       36.2873   31.5652    2.6632 H         1 UNK         0.0771 
    130 H130       34.7574   29.3392    6.4718 H         1 UNK         0.2980 
    131 H131       36.3247   26.9760    6.6204 H         1 UNK         0.0545 
    132 H132       38.4936   27.2644    9.4317 H         1 UNK         0.3459 
    133 H133       37.6687   26.1514    8.3727 H         1 UNK         0.3459 
    134 H134       34.8387   26.3639    8.5143 H         1 UNK         0.0616 
    135 H135       34.2640   28.0067    8.6383 H         1 UNK         0.0616 
    136 H136       34.8274   25.2422    5.9066 H         1 UNK         0.0634 
    137 H137       33.6855   24.5522    7.0352 H         1 UNK         0.0634 
@<TRIPOS>BOND
     1    1    2 1    
     2    1   72 1    
     3    1   73 1    
     4    1   74 1    
     5    2    3 2    
     6    2    4 am   BACKBONE|DICT|INTERRES
     7    4    5 1    
     8    4   75 1    
     9    5    6 1    
    10    5   35 1    
    11    5   76 1    
    12    6    7 1    
    13    6   77 1    
    14    6   78 1    
    15    7    8 1    
    16    8    9 1    
    17    8   79 1    
    18    8   80 1    
    19    9   10 ar   
    20    9   14 ar   
    21   10   11 ar   
    22   10   81 1    
    23   11   12 ar   
    24   11   71 1    
    25   12   13 ar   
    26   12   82 1    
    27   13   14 ar   
    28   13   15 1    
    29   14   83 1    
    30   15   16 1    
    31   15   84 1    
    32   15   85 1    
    33   16   17 1    
    34   17   18 1    
    35   17   86 1    
    36   17   87 1    
    37   18   19 1    
    38   18   37 1    
    39   18   88 1    
    40   19   20 am   BACKBONE|DICT|INTERRES
    41   19   89 1    
    42   20   21 2    
    43   20   22 1    
    44   22   23 1    
    45   22   24 1    
    46   22   90 1    
    47   23   91 1    
    48   23   92 1    
    49   23   93 1    
    50   24   25 am   BACKBONE|DICT|INTERRES
    51   24   94 1    
    52   25   26 2    
    53   25   27 1    
    54   27   28 1    
    55   27   29 1    
    56   27   95 1    
    57   28   96 1    
    58   28   97 1    
    59   28   98 1    
    60   29   30 am   BACKBONE|DICT|INTERRES
    61   29   99 1    
    62   30   31 2    
    63   30   32 1    
    64   32   33 1    
    65   32   34 1    
    66   32  100 1    
    67   33  101 1    
    68   33  102 1    
    69   33  103 1    
    70   34   35 am   BACKBONE|DICT|INTERRES
    71   34  104 1    
    72   35   36 2    
    73   37   38 2    
    74   37   39 am   BACKBONE|DICT|INTERRES
    75   39   40 1    
    76   39  105 1    
    77   40   41 1    
    78   40   42 1    
    79   40  106 1    
    80   41  107 1    
    81   41  108 1    
    82   41  109 1    
    83   42   43 2    
    84   42   44 am   BACKBONE|DICT|INTERRES
    85   44   45 1    
    86   44  110 1    
    87   45   46 1    
    88   45   47 1    
    89   45  111 1    
    90   46  112 1    
    91   46  113 1    
    92   46  114 1    
    93   47   48 2    
    94   47   49 am   BACKBONE|DICT|INTERRES
    95   49   50 1    
    96   49  115 1    
    97   50   51 1    
    98   50   52 1    
    99   50  116 1    
   100   51  117 1    
   101   51  118 1    
   102   51  119 1    
   103   52   53 2    
   104   52   54 am   BACKBONE|DICT|INTERRES
   105   54   55 1    
   106   54  120 1    
   107   55   56 1    
   108   55   57 1    
   109   55  121 1    
   110   56  122 1    
   111   56  123 1    
   112   56  124 1    
   113   57   58 2    
   114   57   59 am   BACKBONE|DICT|INTERRES
   115   59   60 1    
   116   59  125 1    
   117   60   61 1    
   118   60   62 1    
   119   60  126 1    
   120   61  127 1    
   121   61  128 1    
   122   61  129 1    
   123   62   63 2    
   124   62   64 am   BACKBONE|DICT|INTERRES
   125   64   65 1    
   126   64  130 1    
   127   65   66 1    
   128   65   69 1    
   129   65  131 1    
   130   66   67 am   BACKBONE|DICT|INTERRES
   131   66   68 2    
   132   67  132 1    
   133   67  133 1    
   134   69   70 1    
   135   69  134 1    
   136   69  135 1    
   137   70   71 1    
   138   71  136 1    
   139   71  137 1    
@<TRIPOS>SUBSTRUCTURE
     1 UNK         1 GROUP             0       ****    0 ROOT    
