@<TRIPOS>MOLECULE
3R136
137   139    1
SMALL
USER_CHARGES


@<TRIPOS>ATOM
      1 CA         31.7225   21.7603    4.9310 C.3       0 UNK        -0.1979 
      2 C          30.4097   22.1307    4.2584 C.2       0 UNK         0.4864 
      3 O          29.3438   21.8311    4.7975 O.2       0 UNK        -0.5359 
      4 N          30.4770   22.7658    3.0800 N.am      1 UNK        -0.4318 
      5 CA         29.3087   23.1435    2.2728 C.3       1 UNK         0.0824 
      6 C6         29.6539   23.3463    0.7743 C.3       12 UNK        -0.0944 
      7 S7         30.5705   21.9172    0.0835 S.3       12 UNK        -0.2672 
      8 C8         31.9160   22.6660   -0.9024 C.3       12 UNK         0.0333 
      9 C9         32.5891   23.8494   -0.2189 C.ar      12 UNK        -0.0807 
     10 C10        33.1637   23.7139    1.0485 C.ar      12 UNK        -0.0894 
     11 C11        33.6996   24.8268    1.7020 C.ar      12 UNK        -0.0804 
     12 C12        33.6955   26.0697    1.0631 C.ar      12 UNK        -0.0824 
     13 C13        33.1341   26.2201   -0.2080 C.ar      12 UNK        -0.0762 
     14 C14        32.5941   25.0981   -0.8473 C.ar      12 UNK        -0.0782 
     15 C15        33.1369   27.6007   -0.8641 C.3       12 UNK         0.0230 
     16 S16        31.7265   27.9269   -1.9777 S.3       12 UNK        -0.2608 
     17 C17        30.3019   27.8905   -0.8327 C.3       12 UNK        -0.0989 
     18 CA         28.9494   27.7621   -1.5884 C.3       5 UNK         0.0716 
     19 N          27.9253   27.1238   -0.7542 N.am      5 UNK        -0.4135 
     20 C          26.8765   26.4377   -1.2355 C.2       4 UNK         0.5031 
     21 O          26.7592   26.1227   -2.4215 O.2       4 UNK        -0.5229 
     22 CA         25.7563   26.0342   -0.2554 C.3       4 UNK         0.0329 
     23 CB         25.6228   24.5056   -0.1544 C.3       4 UNK        -0.2001 
     24 N          25.9122   26.6096    1.0852 N.am      4 UNK        -0.4303 
     25 C          25.5586   27.8654    1.4028 C.2       3 UNK         0.5044 
     26 O          25.0217   28.6367    0.6077 O.2       3 UNK        -0.5152 
     27 CA         25.8271   28.3652    2.8350 C.3       3 UNK         0.0319 
     28 CB         24.5085   28.5203    3.6106 C.3       3 UNK        -0.2001 
     29 N          26.7366   27.5272    3.6185 N.am      3 UNK        -0.4354 
     30 C          28.0495   27.3730    3.4024 C.2       2 UNK         0.4964 
     31 O          28.6678   27.9441    2.5040 O.2       2 UNK        -0.5047 
     32 CA         28.7986   26.3950    4.3293 C.3       2 UNK         0.0288 
     33 CB         27.9752   25.9345    5.5553 C.3       2 UNK        -0.2113 
     34 N          29.2977   25.2238    3.6007 N.am      2 UNK        -0.4145 
     35 C          28.5767   24.3732    2.8497 C.2       1 UNK         0.5006 
     36 O          27.3743   24.5150    2.6198 O.2       1 UNK        -0.5103 
     37 C          28.4298   29.1086   -2.1581 C.2       5 UNK         0.5055 
     38 O          27.2694   29.4735   -1.9523 O.2       5 UNK        -0.5220 
     39 N          29.2990   29.8340   -2.8762 N.am      6 UNK        -0.4450 
     40 CA         29.0194   31.1444   -3.4830 C.3       6 UNK         0.0367 
     41 CB         30.1903   31.5304   -4.4013 C.3       6 UNK        -0.1929 
     42 C          28.7452   32.2675   -2.4611 C.2       6 UNK         0.5070 
     43 O          28.1153   33.2671   -2.8082 O.2       6 UNK        -0.5237 
     44 N          29.2108   32.0749   -1.2257 N.am      7 UNK        -0.4739 
     45 CA         28.9206   32.8688   -0.0383 C.3       7 UNK         0.0276 
     46 CB         30.0226   33.9263    0.1523 C.3       7 UNK        -0.1927 
     47 C          28.8585   31.8933    1.1462 C.2       7 UNK         0.5013 
     48 O          29.1928   30.7181    0.9771 O.2       7 UNK        -0.5193 
     49 N          28.4514   32.3822    2.3245 N.am      8 UNK        -0.4253 
     50 CA         28.4417   31.6132    3.5724 C.3       8 UNK         0.0242 
     51 CB         27.6219   32.3680    4.6336 C.3       8 UNK        -0.2000 
     52 C          29.8764   31.3239    4.0460 C.2       8 UNK         0.4948 
     53 O          30.4874   32.1756    4.6956 O.2       8 UNK        -0.5275 
     54 N          30.4019   30.1557    3.6580 N.am      9 UNK        -0.4246 
     55 CA         31.7688   29.7246    3.9397 C.3       9 UNK         0.0261 
     56 CB         32.0982   28.5051    3.0674 C.3       9 UNK        -0.1959 
     57 C          31.9863   29.4013    5.4255 C.2       9 UNK         0.5033 
     58 O          31.0863   28.8693    6.0815 O.2       9 UNK        -0.5390 
     59 N          33.2065   29.6761    5.9079 N.am      10 UNK        -0.4215 
     60 CA         33.6468   29.4723    7.2944 C.3       10 UNK         0.0240 
     61 CB         35.0567   30.0618    7.4657 C.3       10 UNK        -0.1982 
     62 C          33.6148   28.0090    7.7747 C.2       10 UNK         0.4970 
     63 O          33.5806   27.7781    8.9841 O.2       10 UNK        -0.4916 
     64 N          33.6103   27.0567    6.8337 N.am      11 UNK        -0.4279 
     65 CA         33.3753   25.6292    7.0841 C.3       11 UNK         0.1003 
     66 C          31.9245   25.2750    7.5327 C.2       11 UNK         0.5709 
     67 N          30.9510   26.1734    7.4252 N.am      11 UNK        -0.7358 
     68 O          31.6852   24.1659    8.0035 O.2       11 UNK        -0.4999 
     69 C69        33.8506   24.7622    5.8891 C.3       12 UNK        -0.0954 
     70 S70        32.9700   25.1184    4.3297 S.3       12 UNK        -0.2268 
     71 C71        34.2517   24.6988    3.1113 C.3       12 UNK         0.0203 
     72 H72        31.7730   20.6831    5.0865 H         1 UNK         0.0888 
     73 H73        32.5858   22.0559    4.3356 H         1 UNK         0.0888 
     74 H74        31.7925   22.2476    5.9029 H         1 UNK         0.0888 
     75 H75        31.3751   22.9812    2.6728 H         1 UNK         0.3017 
     76 H76        28.5982   22.3152    2.3249 H         1 UNK         0.0873 
     77 H77        30.2088   24.2740    0.6368 H         1 UNK         0.0745 
     78 H78        28.7432   23.4626    0.1869 H         1 UNK         0.0745 
     79 H79        31.5031   22.9627   -1.8678 H         1 UNK         0.0705 
     80 H80        32.6659   21.9025   -1.1131 H         1 UNK         0.0705 
     81 H81        33.1655   22.7479    1.5343 H         1 UNK         0.1334 
     82 H82        34.1224   26.9262    1.5650 H         1 UNK         0.1417 
     83 H83        32.1568   25.1980   -1.8309 H         1 UNK         0.1562 
     84 H84        34.0587   27.7039   -1.4378 H         1 UNK         0.0748 
     85 H85        33.1591   28.3830   -0.1043 H         1 UNK         0.0748 
     86 H86        30.3260   28.7662   -0.1839 H         1 UNK         0.0940 
     87 H87        30.4339   27.0341   -0.1692 H         1 UNK         0.0940 
     88 H88        29.1142   27.1088   -2.4483 H         1 UNK         0.0703 
     89 H89        27.9245   27.3834    0.2233 H         1 UNK         0.3081 
     90 H90        24.8229   26.4083   -0.6818 H         1 UNK         0.0719 
     91 H91        25.4015   24.0685   -1.1290 H         1 UNK         0.0809 
     92 H92        26.5371   24.0397    0.2064 H         1 UNK         0.0809 
     93 H93        24.8138   24.2208    0.5183 H         1 UNK         0.0809 
     94 H94        26.3493   26.0175    1.7864 H         1 UNK         0.2990 
     95 H95        26.2764   29.3531    2.7359 H         1 UNK         0.0690 
     96 H96        24.6748   28.9642    4.5924 H         1 UNK         0.0788 
     97 H97        24.0096   27.5609    3.7537 H         1 UNK         0.0788 
     98 H98        23.8144   29.1719    3.0777 H         1 UNK         0.0788 
     99 H99        26.3191   26.9880    4.3634 H         1 UNK         0.2993 
    100 H100       29.6718   26.9315    4.7021 H         1 UNK         0.0949 
    101 H101       27.0763   25.3854    5.2720 H         1 UNK         0.0767 
    102 H102       28.5635   25.2719    6.1896 H         1 UNK         0.0767 
    103 H103       27.6740   26.7832    6.1711 H         1 UNK         0.0767 
    104 H104       30.2840   25.0314    3.7068 H         1 UNK         0.3013 
    105 H105       30.2378   29.4703   -2.9849 H         1 UNK         0.3121 
    106 H106       28.1218   31.0412   -4.0963 H         1 UNK         0.0774 
    107 H107       30.0026   32.4866   -4.8920 H         1 UNK         0.0815 
    108 H108       31.1236   31.6275   -3.8453 H         1 UNK         0.0815 
    109 H109       30.3410   30.7899   -5.1870 H         1 UNK         0.0815 
    110 H110       29.6422   31.1842   -1.0096 H         1 UNK         0.2987 
    111 H111       27.9462   33.3515   -0.1411 H         1 UNK         0.0949 
    112 H112       30.0918   34.5848   -0.7138 H         1 UNK         0.0806 
    113 H113       29.8225   34.5560    1.0198 H         1 UNK         0.0806 
    114 H114       31.0004   33.4657    0.3002 H         1 UNK         0.0806 
    115 H115       28.2190   33.3623    2.3949 H         1 UNK         0.3010 
    116 H116       27.9502   30.6578    3.3895 H         1 UNK         0.0829 
    117 H117       28.0321   33.3581    4.8367 H         1 UNK         0.0813 
    118 H118       27.6110   31.8202    5.5768 H         1 UNK         0.0813 
    119 H119       26.5853   32.4915    4.3195 H         1 UNK         0.0813 
    120 H120       29.8362   29.5327    3.0882 H         1 UNK         0.3038 
    121 H121       32.4373   30.5407    3.6566 H         1 UNK         0.0769 
    122 H122       33.1255   28.1797    3.2302 H         1 UNK         0.0811 
    123 H123       31.9900   28.7366    2.0081 H         1 UNK         0.0811 
    124 H124       31.4491   27.6579    3.2872 H         1 UNK         0.0811 
    125 H125       33.8836   30.0955    5.2863 H         1 UNK         0.3204 
    126 H126       32.9625   30.0309    7.9365 H         1 UNK         0.0748 
    127 H127       35.4025   29.9569    8.4952 H         1 UNK         0.0771 
    128 H128       35.7844   29.5611    6.8256 H         1 UNK         0.0771 
    129 H129       35.0749   31.1259    7.2291 H         1 UNK         0.0771 
    130 H130       33.6299   27.3329    5.8644 H         1 UNK         0.2980 
    131 H131       34.0070   25.3574    7.9319 H         1 UNK         0.0545 
    132 H132       30.0283   25.9304    7.7441 H         1 UNK         0.3459 
    133 H133       31.1223   27.0907    7.0273 H         1 UNK         0.3459 
    134 H134       34.9182   24.9253    5.7338 H         1 UNK         0.0616 
    135 H135       33.7478   23.7005    6.1174 H         1 UNK         0.0616 
    136 H136       35.1102   25.3595    3.2413 H         1 UNK         0.0634 
    137 H137       34.6070   23.6829    3.2907 H         1 UNK         0.0634 
@<TRIPOS>BOND
     1    1    2 1    
     2    1   72 1    
     3    1   73 1    
     4    1   74 1    
     5    2    3 2    
     6    2    4 am   BACKBONE|DICT|INTERRES
     7    4    5 1    
     8    4   75 1    
     9    5    6 1    
    10    5   35 1    
    11    5   76 1    
    12    6    7 1    
    13    6   77 1    
    14    6   78 1    
    15    7    8 1    
    16    8    9 1    
    17    8   79 1    
    18    8   80 1    
    19    9   10 ar   
    20    9   14 ar   
    21   10   11 ar   
    22   10   81 1    
    23   11   12 ar   
    24   11   71 1    
    25   12   13 ar   
    26   12   82 1    
    27   13   14 ar   
    28   13   15 1    
    29   14   83 1    
    30   15   16 1    
    31   15   84 1    
    32   15   85 1    
    33   16   17 1    
    34   17   18 1    
    35   17   86 1    
    36   17   87 1    
    37   18   19 1    
    38   18   37 1    
    39   18   88 1    
    40   19   20 am   BACKBONE|DICT|INTERRES
    41   19   89 1    
    42   20   21 2    
    43   20   22 1    
    44   22   23 1    
    45   22   24 1    
    46   22   90 1    
    47   23   91 1    
    48   23   92 1    
    49   23   93 1    
    50   24   25 am   BACKBONE|DICT|INTERRES
    51   24   94 1    
    52   25   26 2    
    53   25   27 1    
    54   27   28 1    
    55   27   29 1    
    56   27   95 1    
    57   28   96 1    
    58   28   97 1    
    59   28   98 1    
    60   29   30 am   BACKBONE|DICT|INTERRES
    61   29   99 1    
    62   30   31 2    
    63   30   32 1    
    64   32   33 1    
    65   32   34 1    
    66   32  100 1    
    67   33  101 1    
    68   33  102 1    
    69   33  103 1    
    70   34   35 am   BACKBONE|DICT|INTERRES
    71   34  104 1    
    72   35   36 2    
    73   37   38 2    
    74   37   39 am   BACKBONE|DICT|INTERRES
    75   39   40 1    
    76   39  105 1    
    77   40   41 1    
    78   40   42 1    
    79   40  106 1    
    80   41  107 1    
    81   41  108 1    
    82   41  109 1    
    83   42   43 2    
    84   42   44 am   BACKBONE|DICT|INTERRES
    85   44   45 1    
    86   44  110 1    
    87   45   46 1    
    88   45   47 1    
    89   45  111 1    
    90   46  112 1    
    91   46  113 1    
    92   46  114 1    
    93   47   48 2    
    94   47   49 am   BACKBONE|DICT|INTERRES
    95   49   50 1    
    96   49  115 1    
    97   50   51 1    
    98   50   52 1    
    99   50  116 1    
   100   51  117 1    
   101   51  118 1    
   102   51  119 1    
   103   52   53 2    
   104   52   54 am   BACKBONE|DICT|INTERRES
   105   54   55 1    
   106   54  120 1    
   107   55   56 1    
   108   55   57 1    
   109   55  121 1    
   110   56  122 1    
   111   56  123 1    
   112   56  124 1    
   113   57   58 2    
   114   57   59 am   BACKBONE|DICT|INTERRES
   115   59   60 1    
   116   59  125 1    
   117   60   61 1    
   118   60   62 1    
   119   60  126 1    
   120   61  127 1    
   121   61  128 1    
   122   61  129 1    
   123   62   63 2    
   124   62   64 am   BACKBONE|DICT|INTERRES
   125   64   65 1    
   126   64  130 1    
   127   65   66 1    
   128   65   69 1    
   129   65  131 1    
   130   66   67 am   BACKBONE|DICT|INTERRES
   131   66   68 2    
   132   67  132 1    
   133   67  133 1    
   134   69   70 1    
   135   69  134 1    
   136   69  135 1    
   137   70   71 1    
   138   71  136 1    
   139   71  137 1    
@<TRIPOS>SUBSTRUCTURE
     1 UNK         1 GROUP             0       ****    0 ROOT    
