@<TRIPOS>MOLECULE
3R136
137   139    1
SMALL
USER_CHARGES


@<TRIPOS>ATOM
      1 CA         27.0099   21.6417   -2.7259 C.3       0 UNK        -0.1979 
      2 C          28.2400   21.8458   -1.8535 C.2       0 UNK         0.4864 
      3 O          29.3229   22.0998   -2.3812 O.2       0 UNK        -0.5359 
      4 N          28.0689   21.7436   -0.5309 N.am      1 UNK        -0.4318 
      5 CA         29.0887   21.9841    0.4904 C.3       1 UNK         0.0824 
      6 C6         29.7167   20.6654    1.0252 C.3       12 UNK        -0.0944 
      7 S7         30.8739   19.9052   -0.1598 S.3       12 UNK        -0.2672 
      8 C8         32.4930   20.3934    0.5322 C.3       12 UNK         0.0333 
      9 C9         32.6671   21.9050    0.6549 C.ar      12 UNK        -0.0807 
     10 C10        33.0732   22.4722    1.8680 C.ar      12 UNK        -0.0894 
     11 C11        33.2457   23.8555    1.9963 C.ar      12 UNK        -0.0804 
     12 C12        32.9855   24.6727    0.8877 C.ar      12 UNK        -0.0824 
     13 C13        32.5627   24.1218   -0.3244 C.ar      12 UNK        -0.0762 
     14 C14        32.4324   22.7371   -0.4434 C.ar      12 UNK        -0.0782 
     15 C15        32.2294   25.0227   -1.5030 C.3       12 UNK         0.0230 
     16 S16        30.4923   25.5650   -1.4432 S.3       12 UNK        -0.2608 
     17 C17        30.5541   26.8169   -0.1175 C.3       12 UNK        -0.0989 
     18 CA         29.3225   27.7554   -0.1431 C.3       5 UNK         0.0716 
     19 N          28.0925   27.0137    0.1441 N.am      5 UNK        -0.4135 
     20 C          26.9902   26.9997   -0.6159 C.2       4 UNK         0.5031 
     21 O          26.8638   27.6484   -1.6551 O.2       4 UNK        -0.5229 
     22 CA         25.8214   26.1094   -0.1472 C.3       4 UNK         0.0329 
     23 CB         25.8170   24.7882   -0.9307 C.3       4 UNK        -0.2001 
     24 N          25.8430   25.8154    1.2893 N.am      4 UNK        -0.4303 
     25 C          25.6296   26.7283    2.2487 C.2       3 UNK         0.5044 
     26 O          25.3410   27.9022    2.0178 O.2       3 UNK        -0.5152 
     27 CA         25.8206   26.2805    3.7097 C.3       3 UNK         0.0319 
     28 CB         24.4805   25.8223    4.3060 C.3       3 UNK        -0.2001 
     29 N          26.8199   25.2245    3.9039 N.am      3 UNK        -0.4354 
     30 C          28.0934   25.2428    3.4824 C.2       2 UNK         0.4964 
     31 O          28.5916   26.1628    2.8334 O.2       2 UNK        -0.5047 
     32 CA         28.9506   23.9999    3.7771 C.3       2 UNK         0.0288 
     33 CB         28.3275   23.0259    4.8040 C.3       2 UNK        -0.2113 
     34 N          29.2990   23.2868    2.5436 N.am      2 UNK        -0.4145 
     35 C          28.4476   22.7841    1.6353 C.2       1 UNK         0.5006 
     36 O          27.2186   22.9093    1.6890 O.2       1 UNK        -0.5103 
     37 C          29.5145   28.9299    0.8398 C.2       5 UNK         0.5055 
     38 O          30.5187   29.6353    0.7350 O.2       5 UNK        -0.5220 
     39 N          28.5716   29.1492    1.7685 N.am      6 UNK        -0.4450 
     40 CA         28.6335   30.1488    2.8408 C.3       6 UNK         0.0367 
     41 CB         27.6884   29.7122    3.9735 C.3       6 UNK        -0.1929 
     42 C          28.3488   31.5908    2.3691 C.2       6 UNK         0.5070 
     43 O          27.6775   32.3500    3.0706 O.2       6 UNK        -0.5237 
     44 N          28.8770   31.9693    1.2002 N.am      7 UNK        -0.4739 
     45 CA         28.7714   33.3016    0.6023 C.3       7 UNK         0.0276 
     46 CB         28.9624   33.1741   -0.9207 C.3       7 UNK        -0.1927 
     47 C          29.7810   34.2662    1.2517 C.2       7 UNK         0.5013 
     48 O          30.7279   34.7003    0.5931 O.2       7 UNK        -0.5193 
     49 N          29.5751   34.5363    2.5502 N.am      8 UNK        -0.4253 
     50 CA         30.4608   35.2768    3.4598 C.3       8 UNK         0.0242 
     51 CB         30.5414   36.7675    3.0655 C.3       8 UNK        -0.2000 
     52 C          31.8428   34.6027    3.5833 C.2       8 UNK         0.4948 
     53 O          32.8742   35.2678    3.4645 O.2       8 UNK        -0.5275 
     54 N          31.8254   33.2817    3.7958 N.am      9 UNK        -0.4246 
     55 CA         32.9956   32.4144    3.8929 C.3       9 UNK         0.0261 
     56 CB         33.0716   31.5433    2.6267 C.3       9 UNK        -0.1959 
     57 C          32.8680   31.5335    5.1395 C.2       9 UNK         0.5033 
     58 O          31.7509   31.2865    5.6043 O.2       9 UNK        -0.5390 
     59 N          34.0135   31.0355    5.6262 N.am      10 UNK        -0.4215 
     60 CA         34.1481   30.1945    6.8244 C.3       10 UNK         0.0240 
     61 CB         35.6403   29.9347    7.0905 C.3       10 UNK        -0.1982 
     62 C          33.3728   28.8633    6.7801 C.2       10 UNK         0.4970 
     63 O          33.0840   28.3051    7.8394 O.2       10 UNK        -0.4916 
     64 N          33.0378   28.3916    5.5728 N.am      11 UNK        -0.4279 
     65 CA         32.1427   27.2503    5.3313 C.3       11 UNK         0.1003 
     66 C          30.6644   27.5017    5.7514 C.2       11 UNK         0.5709 
     67 N          30.2290   28.7392    5.9650 N.am      11 UNK        -0.7358 
     68 O          29.9091   26.5487    5.9197 O.2       11 UNK        -0.4999 
     69 C69        32.2389   26.7572    3.8630 C.3       12 UNK        -0.0954 
     70 S70        33.9328   26.2183    3.4483 S.3       12 UNK        -0.2268 
     71 C71        33.7371   24.4034    3.3404 C.3       12 UNK         0.0203 
     72 H72        26.8222   22.5339   -3.3228 H         1 UNK         0.0888 
     73 H73        27.1662   20.8034   -3.4043 H         1 UNK         0.0888 
     74 H74        26.1181   21.4373   -2.1334 H         1 UNK         0.0888 
     75 H75        27.1417   21.6055   -0.1494 H         1 UNK         0.3017 
     76 H76        29.8607   22.6300    0.0739 H         1 UNK         0.0873 
     77 H77        30.2555   20.8228    1.9615 H         1 UNK         0.0745 
     78 H78        28.9352   19.9395    1.2568 H         1 UNK         0.0745 
     79 H79        32.6178   19.9083    1.5016 H         1 UNK         0.0705 
     80 H80        33.2815   20.0011   -0.1111 H         1 UNK         0.0705 
     81 H81        33.2711   21.8319    2.7174 H         1 UNK         0.1334 
     82 H82        33.1015   25.7443    0.9524 H         1 UNK         0.1417 
     83 H83        32.1051   22.3078   -1.3815 H         1 UNK         0.1562 
     84 H84        32.3958   24.4875   -2.4392 H         1 UNK         0.0748 
     85 H85        32.8934   25.8881   -1.5266 H         1 UNK         0.0748 
     86 H86        30.6281   26.3097    0.8467 H         1 UNK         0.0940 
     87 H87        31.4760   27.3895   -0.2384 H         1 UNK         0.0940 
     88 H88        29.2639   28.2055   -1.1362 H         1 UNK         0.0703 
     89 H89        28.1087   26.4815    1.0100 H         1 UNK         0.3081 
     90 H90        24.8936   26.6414   -0.3680 H         1 UNK         0.0719 
     91 H91        26.7411   24.2336   -0.7722 H         1 UNK         0.0809 
     92 H92        24.9837   24.1497   -0.6372 H         1 UNK         0.0809 
     93 H93        25.7267   24.9694   -2.0027 H         1 UNK         0.0809 
     94 H94        26.1003   24.8735    1.5624 H         1 UNK         0.2990 
     95 H95        26.1598   27.1494    4.2746 H         1 UNK         0.0690 
     96 H96        24.5717   25.6067    5.3708 H         1 UNK         0.0788 
     97 H97        24.1043   24.9257    3.8114 H         1 UNK         0.0788 
     98 H98        23.7199   26.5973    4.1992 H         1 UNK         0.0788 
     99 H99        26.5074   24.3997    4.3953 H         1 UNK         0.2993 
    100 H100       29.8836   24.3690    4.2033 H         1 UNK         0.0949 
    101 H101       29.0195   22.2170    5.0389 H         1 UNK         0.0767 
    102 H102       28.1055   23.5344    5.7435 H         1 UNK         0.0767 
    103 H103       27.4052   22.5698    4.4420 H         1 UNK         0.0767 
    104 H104       30.2895   23.1735    2.3776 H         1 UNK         0.3013 
    105 H105       27.7516   28.5591    1.7610 H         1 UNK         0.3121 
    106 H106       29.6487   30.1478    3.2439 H         1 UNK         0.0774 
    107 H107       26.6448   29.7323    3.6578 H         1 UNK         0.0815 
    108 H108       27.7814   30.3696    4.8388 H         1 UNK         0.0815 
    109 H109       27.9212   28.7023    4.3099 H         1 UNK         0.0815 
    110 H110       29.4883   31.3042    0.7357 H         1 UNK         0.2987 
    111 H111       27.7702   33.7000    0.7823 H         1 UNK         0.0949 
    112 H112       29.9401   32.7612   -1.1730 H         1 UNK         0.0806 
    113 H113       28.2028   32.5289   -1.3623 H         1 UNK         0.0806 
    114 H114       28.8825   34.1472   -1.4071 H         1 UNK         0.0806 
    115 H115       28.7813   34.0732    2.9834 H         1 UNK         0.3010 
    116 H116       30.0043   35.2230    4.4495 H         1 UNK         0.0829 
    117 H117       29.5499   37.2160    3.0051 H         1 UNK         0.0813 
    118 H118       31.1089   37.3351    3.8040 H         1 UNK         0.0813 
    119 H119       31.0327   36.9085    2.1023 H         1 UNK         0.0813 
    120 H120       30.9428   32.8254    3.9810 H         1 UNK         0.3038 
    121 H121       33.9069   33.0100    3.9807 H         1 UNK         0.0769 
    122 H122       32.1976   30.8980    2.5270 H         1 UNK         0.0811 
    123 H123       33.9529   30.9009    2.6386 H         1 UNK         0.0811 
    124 H124       33.1321   32.1579    1.7281 H         1 UNK         0.0811 
    125 H125       34.8758   31.2811    5.1602 H         1 UNK         0.3204 
    126 H126       33.7461   30.7651    7.6642 H         1 UNK         0.0748 
    127 H127       35.7791   29.3391    7.9942 H         1 UNK         0.0771 
    128 H128       36.1082   29.3916    6.2681 H         1 UNK         0.0771 
    129 H129       36.1876   30.8665    7.2343 H         1 UNK         0.0771 
    130 H130       33.3329   28.9031    4.7563 H         1 UNK         0.2980 
    131 H131       32.4903   26.4357    5.9698 H         1 UNK         0.0545 
    132 H132       29.2792   28.8730    6.2678 H         1 UNK         0.3459 
    133 H133       30.8396   29.5417    5.8517 H         1 UNK         0.3459 
    134 H134       31.5479   25.9344    3.6771 H         1 UNK         0.0616 
    135 H135       31.9491   27.5523    3.1732 H         1 UNK         0.0616 
    136 H136       34.7105   23.9578    3.5495 H         1 UNK         0.0634 
    137 H137       33.0712   24.0686    4.1372 H         1 UNK         0.0634 
@<TRIPOS>BOND
     1    1    2 1    
     2    1   72 1    
     3    1   73 1    
     4    1   74 1    
     5    2    3 2    
     6    2    4 am   BACKBONE|DICT|INTERRES
     7    4    5 1    
     8    4   75 1    
     9    5    6 1    
    10    5   35 1    
    11    5   76 1    
    12    6    7 1    
    13    6   77 1    
    14    6   78 1    
    15    7    8 1    
    16    8    9 1    
    17    8   79 1    
    18    8   80 1    
    19    9   10 ar   
    20    9   14 ar   
    21   10   11 ar   
    22   10   81 1    
    23   11   12 ar   
    24   11   71 1    
    25   12   13 ar   
    26   12   82 1    
    27   13   14 ar   
    28   13   15 1    
    29   14   83 1    
    30   15   16 1    
    31   15   84 1    
    32   15   85 1    
    33   16   17 1    
    34   17   18 1    
    35   17   86 1    
    36   17   87 1    
    37   18   19 1    
    38   18   37 1    
    39   18   88 1    
    40   19   20 am   BACKBONE|DICT|INTERRES
    41   19   89 1    
    42   20   21 2    
    43   20   22 1    
    44   22   23 1    
    45   22   24 1    
    46   22   90 1    
    47   23   91 1    
    48   23   92 1    
    49   23   93 1    
    50   24   25 am   BACKBONE|DICT|INTERRES
    51   24   94 1    
    52   25   26 2    
    53   25   27 1    
    54   27   28 1    
    55   27   29 1    
    56   27   95 1    
    57   28   96 1    
    58   28   97 1    
    59   28   98 1    
    60   29   30 am   BACKBONE|DICT|INTERRES
    61   29   99 1    
    62   30   31 2    
    63   30   32 1    
    64   32   33 1    
    65   32   34 1    
    66   32  100 1    
    67   33  101 1    
    68   33  102 1    
    69   33  103 1    
    70   34   35 am   BACKBONE|DICT|INTERRES
    71   34  104 1    
    72   35   36 2    
    73   37   38 2    
    74   37   39 am   BACKBONE|DICT|INTERRES
    75   39   40 1    
    76   39  105 1    
    77   40   41 1    
    78   40   42 1    
    79   40  106 1    
    80   41  107 1    
    81   41  108 1    
    82   41  109 1    
    83   42   43 2    
    84   42   44 am   BACKBONE|DICT|INTERRES
    85   44   45 1    
    86   44  110 1    
    87   45   46 1    
    88   45   47 1    
    89   45  111 1    
    90   46  112 1    
    91   46  113 1    
    92   46  114 1    
    93   47   48 2    
    94   47   49 am   BACKBONE|DICT|INTERRES
    95   49   50 1    
    96   49  115 1    
    97   50   51 1    
    98   50   52 1    
    99   50  116 1    
   100   51  117 1    
   101   51  118 1    
   102   51  119 1    
   103   52   53 2    
   104   52   54 am   BACKBONE|DICT|INTERRES
   105   54   55 1    
   106   54  120 1    
   107   55   56 1    
   108   55   57 1    
   109   55  121 1    
   110   56  122 1    
   111   56  123 1    
   112   56  124 1    
   113   57   58 2    
   114   57   59 am   BACKBONE|DICT|INTERRES
   115   59   60 1    
   116   59  125 1    
   117   60   61 1    
   118   60   62 1    
   119   60  126 1    
   120   61  127 1    
   121   61  128 1    
   122   61  129 1    
   123   62   63 2    
   124   62   64 am   BACKBONE|DICT|INTERRES
   125   64   65 1    
   126   64  130 1    
   127   65   66 1    
   128   65   69 1    
   129   65  131 1    
   130   66   67 am   BACKBONE|DICT|INTERRES
   131   66   68 2    
   132   67  132 1    
   133   67  133 1    
   134   69   70 1    
   135   69  134 1    
   136   69  135 1    
   137   70   71 1    
   138   71  136 1    
   139   71  137 1    
@<TRIPOS>SUBSTRUCTURE
     1 UNK         1 GROUP             0       ****    0 ROOT    
