@<TRIPOS>MOLECULE
3R136
137   139    1
SMALL
USER_CHARGES


@<TRIPOS>ATOM
      1 CA         32.5784   25.5430   -3.4842 C.3       0 UNK        -0.1979 
      2 C          31.4315   25.8022   -2.5189 C.2       0 UNK         0.4864 
      3 O          31.0581   26.9571   -2.3089 O.2       0 UNK        -0.5359 
      4 N          30.8762   24.7386   -1.9241 N.am      1 UNK        -0.4318 
      5 CA         29.7490   24.7995   -0.9898 C.3       1 UNK         0.0824 
      6 C6         29.6351   23.5285   -0.1061 C.3       12 UNK        -0.0944 
      7 S7         31.2160   23.1183    0.7139 S.3       12 UNK        -0.2672 
      8 C8         30.7012   22.2285    2.2197 C.3       12 UNK         0.0333 
      9 C9         30.8948   23.0650    3.4791 C.ar      12 UNK        -0.0807 
     10 C10        32.1606   23.5688    3.8019 C.ar      12 UNK        -0.0894 
     11 C11        32.3513   24.3217    4.9634 C.ar      12 UNK        -0.0804 
     12 C12        31.2639   24.5802    5.8005 C.ar      12 UNK        -0.0824 
     13 C13        29.9957   24.0757    5.4993 C.ar      12 UNK        -0.0762 
     14 C14        29.8221   23.3024    4.3451 C.ar      12 UNK        -0.0782 
     15 C15        28.8325   24.3657    6.4442 C.3       12 UNK         0.0230 
     16 S16        27.3170   24.9500    5.6108 S.3       12 UNK        -0.2608 
     17 C17        27.9356   26.2615    4.4984 C.3       12 UNK        -0.0989 
     18 CA         27.7119   25.8672    3.0093 C.3       5 UNK         0.0716 
     19 N          26.2925   25.6941    2.6716 N.am      5 UNK        -0.4135 
     20 C          25.3081   26.5992    2.7650 C.2       4 UNK         0.5031 
     21 O          25.4681   27.7642    3.1355 O.2       4 UNK        -0.5229 
     22 CA         23.8986   26.1010    2.3833 C.3       4 UNK         0.0329 
     23 CB         22.8293   27.2055    2.4779 C.3       4 UNK        -0.2001 
     24 N          23.8778   25.5438    1.0310 N.am      4 UNK        -0.4303 
     25 C          24.2717   24.3158    0.6763 C.2       3 UNK         0.5044 
     26 O          24.6730   23.4725    1.4788 O.2       3 UNK        -0.5152 
     27 CA         24.2959   24.0038   -0.8299 C.3       3 UNK         0.0319 
     28 CB         22.8982   24.1114   -1.4735 C.3       3 UNK        -0.2001 
     29 N          25.2989   24.8067   -1.5418 N.am      3 UNK        -0.4354 
     30 C          25.3430   26.1374   -1.7071 C.2       2 UNK         0.4964 
     31 O          24.4315   26.9011   -1.3808 O.2       2 UNK        -0.5047 
     32 CA         26.6489   26.7040   -2.2917 C.3       2 UNK         0.0288 
     33 CB         26.6768   28.2445   -2.2963 C.3       2 UNK        -0.2113 
     34 N          27.8172   26.2219   -1.5494 N.am      2 UNK        -0.4145 
     35 C          28.4579   25.0701   -1.7851 C.2       1 UNK         0.5006 
     36 O          28.0682   24.2363   -2.6064 O.2       1 UNK        -0.5103 
     37 C          28.4610   26.7930    2.0261 C.2       5 UNK         0.5055 
     38 O          27.8665   27.3802    1.1182 O.2       5 UNK        -0.5220 
     39 N          29.7891   26.8720    2.1796 N.am      6 UNK        -0.4450 
     40 CA         30.6616   27.7448    1.3924 C.3       6 UNK         0.0367 
     41 CB         32.0684   27.1279    1.3181 C.3       6 UNK        -0.1929 
     42 C          30.6632   29.1579    1.9922 C.2       6 UNK         0.5070 
     43 O          31.6535   29.5793    2.5913 O.2       6 UNK        -0.5237 
     44 N          29.5390   29.8671    1.8316 N.am      7 UNK        -0.4739 
     45 CA         29.2955   31.2134    2.3653 C.3       7 UNK         0.0276 
     46 CB         27.8527   31.6285    2.0371 C.3       7 UNK        -0.1927 
     47 C          30.2910   32.2847    1.8804 C.2       7 UNK         0.5013 
     48 O          30.5316   33.2515    2.6030 O.2       7 UNK        -0.5193 
     49 N          30.8692   32.0817    0.6876 N.am      8 UNK        -0.4253 
     50 CA         31.9414   32.9087    0.1289 C.3       8 UNK         0.0242 
     51 CB         32.1068   32.5851   -1.3649 C.3       8 UNK        -0.2000 
     52 C          33.2823   32.7399    0.8683 C.2       8 UNK         0.4948 
     53 O          34.0476   33.7019    0.9446 O.2       8 UNK        -0.5275 
     54 N          33.5437   31.5348    1.3954 N.am      9 UNK        -0.4246 
     55 CA         34.7148   31.2276    2.2194 C.3       9 UNK         0.0261 
     56 CB         35.0943   29.7465    2.0470 C.3       9 UNK        -0.1959 
     57 C          34.4574   31.5451    3.7004 C.2       9 UNK         0.5033 
     58 O          35.3773   31.9927    4.3861 O.2       9 UNK        -0.5390 
     59 N          33.2187   31.2990    4.1572 N.am      10 UNK        -0.4215 
     60 CA         32.7201   31.4565    5.5291 C.3       10 UNK         0.0240 
     61 CB         32.7286   32.9388    5.9592 C.3       10 UNK        -0.1982 
     62 C          33.4344   30.5245    6.5284 C.2       10 UNK         0.4970 
     63 O          33.6801   30.9101    7.6726 O.2       10 UNK        -0.4916 
     64 N          33.7516   29.3086    6.0674 N.am      11 UNK        -0.4279 
     65 CA         34.4262   28.2482    6.8301 C.3       11 UNK         0.1003 
     66 C          33.5462   27.5383    7.9016 C.2       11 UNK         0.5709 
     67 N          32.2378   27.7616    7.9477 N.am      11 UNK        -0.7358 
     68 O          34.0658   26.7773    8.7141 O.2       11 UNK        -0.4999 
     69 C69        35.1268   27.2402    5.8787 C.3       12 UNK        -0.0954 
     70 S70        33.9958   26.5077    4.6464 S.3       12 UNK        -0.2268 
     71 C71        33.7295   24.8468    5.3316 C.3       12 UNK         0.0203 
     72 H72        32.8110   24.4813   -3.5652 H         1 UNK         0.0888 
     73 H73        32.3231   25.9116   -4.4772 H         1 UNK         0.0888 
     74 H74        33.4755   26.0618   -3.1475 H         1 UNK         0.0888 
     75 H75        31.2146   23.8109   -2.1357 H         1 UNK         0.3017 
     76 H76        29.9230   25.6413   -0.3232 H         1 UNK         0.0873 
     77 H77        29.3321   22.6643   -0.7006 H         1 UNK         0.0745 
     78 H78        28.8634   23.6691    0.6528 H         1 UNK         0.0745 
     79 H79        29.6677   21.8932    2.1199 H         1 UNK         0.0705 
     80 H80        31.3053   21.3247    2.3098 H         1 UNK         0.0705 
     81 H81        32.9990   23.3728    3.1472 H         1 UNK         0.1334 
     82 H82        31.4122   25.1700    6.6952 H         1 UNK         0.1417 
     83 H83        28.8461   22.8942    4.1197 H         1 UNK         0.1562 
     84 H84        29.1183   25.1146    7.1847 H         1 UNK         0.0748 
     85 H85        28.5983   23.4583    7.0021 H         1 UNK         0.0748 
     86 H86        28.9877   26.4478    4.7163 H         1 UNK         0.0940 
     87 H87        27.4255   27.1948    4.7402 H         1 UNK         0.0940 
     88 H88        28.1546   24.8847    2.8497 H         1 UNK         0.0703 
     89 H89        26.0273   24.7715    2.3457 H         1 UNK         0.3081 
     90 H90        23.6303   25.3167    3.0944 H         1 UNK         0.0719 
     91 H91        22.7836   27.6212    3.4853 H         1 UNK         0.0809 
     92 H92        23.0390   28.0283    1.7930 H         1 UNK         0.0809 
     93 H93        21.8375   26.8185    2.2436 H         1 UNK         0.0809 
     94 H94        23.7041   26.1990    0.2736 H         1 UNK         0.2990 
     95 H95        24.6186   22.9662   -0.9309 H         1 UNK         0.0690 
     96 H96        22.9252   23.8169   -2.5226 H         1 UNK         0.0788 
     97 H97        22.4892   25.1205   -1.4228 H         1 UNK         0.0788 
     98 H98        22.1897   23.4516   -0.9710 H         1 UNK         0.0788 
     99 H99        26.1133   24.2923   -1.8610 H         1 UNK         0.2993 
    100 H100       26.7121   26.3657   -3.3284 H         1 UNK         0.0949 
    101 H101       26.6012   28.6507   -1.2864 H         1 UNK         0.0767 
    102 H102       27.5980   28.6221   -2.7408 H         1 UNK         0.0767 
    103 H103       25.8477   28.6510   -2.8770 H         1 UNK         0.0767 
    104 H104       28.1142   26.8089   -0.7759 H         1 UNK         0.3013 
    105 H105       30.2332   26.3602    2.9295 H         1 UNK         0.3121 
    106 H106       30.2883   27.8287    0.3696 H         1 UNK         0.0774 
    107 H107       32.5115   27.0198    2.3055 H         1 UNK         0.0815 
    108 H108       32.0499   26.1429    0.8525 H         1 UNK         0.0815 
    109 H109       32.7374   27.7523    0.7249 H         1 UNK         0.0815 
    110 H110       28.7610   29.4131    1.3666 H         1 UNK         0.2987 
    111 H111       29.3964   31.1547    3.4513 H         1 UNK         0.0949 
    112 H112       27.1320   30.9282    2.4607 H         1 UNK         0.0806 
    113 H113       27.6257   32.6131    2.4487 H         1 UNK         0.0806 
    114 H114       27.6813   31.6769    0.9611 H         1 UNK         0.0806 
    115 H115       30.5884   31.2703    0.1566 H         1 UNK         0.3010 
    116 H116       31.6445   33.9559    0.2210 H         1 UNK         0.0829 
    117 H117       32.3881   31.5436   -1.5260 H         1 UNK         0.0813 
    118 H118       32.8842   33.2053   -1.8137 H         1 UNK         0.0813 
    119 H119       31.1858   32.7744   -1.9167 H         1 UNK         0.0813 
    120 H120       32.8368   30.8129    1.3346 H         1 UNK         0.3038 
    121 H121       35.5607   31.8331    1.8863 H         1 UNK         0.0769 
    122 H122       35.3087   29.5106    1.0047 H         1 UNK         0.0811 
    123 H123       34.3024   29.0778    2.3856 H         1 UNK         0.0811 
    124 H124       35.9880   29.5053    2.6242 H         1 UNK         0.0811 
    125 H125       32.5728   30.8409    3.5154 H         1 UNK         0.3204 
    126 H126       31.6792   31.1305    5.5068 H         1 UNK         0.0748 
    127 H127       33.7424   33.3259    6.0650 H         1 UNK         0.0771 
    128 H128       32.2050   33.5622    5.2339 H         1 UNK         0.0771 
    129 H129       32.2287   33.0704    6.9195 H         1 UNK         0.0771 
    130 H130       33.4962   29.0638    5.1219 H         1 UNK         0.2980 
    131 H131       35.2195   28.7343    7.4009 H         1 UNK         0.0545 
    132 H132       31.8028   28.3872    7.2905 H         1 UNK         0.3459 
    133 H133       31.6861   27.3095    8.6590 H         1 UNK         0.3459 
    134 H134       35.6369   26.4543    6.4388 H         1 UNK         0.0616 
    135 H135       35.9130   27.7575    5.3268 H         1 UNK         0.0616 
    136 H136       34.5074   24.1768    4.9626 H         1 UNK         0.0634 
    137 H137       33.8313   24.8675    6.4176 H         1 UNK         0.0634 
@<TRIPOS>BOND
     1    1    2 1    
     2    1   72 1    
     3    1   73 1    
     4    1   74 1    
     5    2    3 2    
     6    2    4 am   BACKBONE|DICT|INTERRES
     7    4    5 1    
     8    4   75 1    
     9    5    6 1    
    10    5   35 1    
    11    5   76 1    
    12    6    7 1    
    13    6   77 1    
    14    6   78 1    
    15    7    8 1    
    16    8    9 1    
    17    8   79 1    
    18    8   80 1    
    19    9   10 ar   
    20    9   14 ar   
    21   10   11 ar   
    22   10   81 1    
    23   11   12 ar   
    24   11   71 1    
    25   12   13 ar   
    26   12   82 1    
    27   13   14 ar   
    28   13   15 1    
    29   14   83 1    
    30   15   16 1    
    31   15   84 1    
    32   15   85 1    
    33   16   17 1    
    34   17   18 1    
    35   17   86 1    
    36   17   87 1    
    37   18   19 1    
    38   18   37 1    
    39   18   88 1    
    40   19   20 am   BACKBONE|DICT|INTERRES
    41   19   89 1    
    42   20   21 2    
    43   20   22 1    
    44   22   23 1    
    45   22   24 1    
    46   22   90 1    
    47   23   91 1    
    48   23   92 1    
    49   23   93 1    
    50   24   25 am   BACKBONE|DICT|INTERRES
    51   24   94 1    
    52   25   26 2    
    53   25   27 1    
    54   27   28 1    
    55   27   29 1    
    56   27   95 1    
    57   28   96 1    
    58   28   97 1    
    59   28   98 1    
    60   29   30 am   BACKBONE|DICT|INTERRES
    61   29   99 1    
    62   30   31 2    
    63   30   32 1    
    64   32   33 1    
    65   32   34 1    
    66   32  100 1    
    67   33  101 1    
    68   33  102 1    
    69   33  103 1    
    70   34   35 am   BACKBONE|DICT|INTERRES
    71   34  104 1    
    72   35   36 2    
    73   37   38 2    
    74   37   39 am   BACKBONE|DICT|INTERRES
    75   39   40 1    
    76   39  105 1    
    77   40   41 1    
    78   40   42 1    
    79   40  106 1    
    80   41  107 1    
    81   41  108 1    
    82   41  109 1    
    83   42   43 2    
    84   42   44 am   BACKBONE|DICT|INTERRES
    85   44   45 1    
    86   44  110 1    
    87   45   46 1    
    88   45   47 1    
    89   45  111 1    
    90   46  112 1    
    91   46  113 1    
    92   46  114 1    
    93   47   48 2    
    94   47   49 am   BACKBONE|DICT|INTERRES
    95   49   50 1    
    96   49  115 1    
    97   50   51 1    
    98   50   52 1    
    99   50  116 1    
   100   51  117 1    
   101   51  118 1    
   102   51  119 1    
   103   52   53 2    
   104   52   54 am   BACKBONE|DICT|INTERRES
   105   54   55 1    
   106   54  120 1    
   107   55   56 1    
   108   55   57 1    
   109   55  121 1    
   110   56  122 1    
   111   56  123 1    
   112   56  124 1    
   113   57   58 2    
   114   57   59 am   BACKBONE|DICT|INTERRES
   115   59   60 1    
   116   59  125 1    
   117   60   61 1    
   118   60   62 1    
   119   60  126 1    
   120   61  127 1    
   121   61  128 1    
   122   61  129 1    
   123   62   63 2    
   124   62   64 am   BACKBONE|DICT|INTERRES
   125   64   65 1    
   126   64  130 1    
   127   65   66 1    
   128   65   69 1    
   129   65  131 1    
   130   66   67 am   BACKBONE|DICT|INTERRES
   131   66   68 2    
   132   67  132 1    
   133   67  133 1    
   134   69   70 1    
   135   69  134 1    
   136   69  135 1    
   137   70   71 1    
   138   71  136 1    
   139   71  137 1    
@<TRIPOS>SUBSTRUCTURE
     1 UNK         1 GROUP             0       ****    0 ROOT    
