@<TRIPOS>MOLECULE
3R136
137   139    1
SMALL
USER_CHARGES


@<TRIPOS>ATOM
      1 CA         31.6668   21.4682    3.9868 C.3       0 UNK        -0.1979 
      2 C          30.7341   20.8268    2.9686 C.2       0 UNK         0.4864 
      3 O          31.0875   19.8141    2.3632 O.2       0 UNK        -0.5359 
      4 N          29.5504   21.4136    2.7755 N.am      1 UNK        -0.4318 
      5 CA         28.5133   20.9909    1.8348 C.3       1 UNK         0.0824 
      6 C6         28.8807   21.2609    0.3460 C.3       12 UNK        -0.0944 
      7 S7         29.3856   22.9849   -0.0022 S.3       12 UNK        -0.2672 
      8 C8         31.1561   22.7554   -0.3488 C.3       12 UNK         0.0333 
      9 C9         31.9554   24.0338   -0.1432 C.ar      12 UNK        -0.0807 
     10 C10        32.8384   24.1409    0.9365 C.ar      12 UNK        -0.0894 
     11 C11        33.6466   25.2718    1.0824 C.ar      12 UNK        -0.0804 
     12 C12        33.5412   26.3168    0.1601 C.ar      12 UNK        -0.0824 
     13 C13        32.6563   26.2270   -0.9183 C.ar      12 UNK        -0.0762 
     14 C14        31.8662   25.0815   -1.0657 C.ar      12 UNK        -0.0782 
     15 C15        32.6129   27.3333   -1.9639 C.3       12 UNK         0.0230 
     16 S16        31.0126   28.1961   -2.0191 S.3       12 UNK        -0.2608 
     17 C17        31.0435   29.1785   -0.4819 C.3       12 UNK        -0.0989 
     18 CA         29.6783   29.0914    0.2442 C.3       5 UNK         0.0716 
     19 N          29.3952   27.7533    0.7678 N.am      5 UNK        -0.4135 
     20 C          29.8691   27.1930    1.8909 C.2       4 UNK         0.5031 
     21 O          30.7417   27.6976    2.6025 O.2       4 UNK        -0.5229 
     22 CA         29.2225   25.8604    2.3205 C.3       4 UNK         0.0329 
     23 CB         28.9790   25.8133    3.8397 C.3       4 UNK        -0.2001 
     24 N          27.9804   25.5082    1.6132 N.am      4 UNK        -0.4303 
     25 C          26.8230   26.1921    1.5705 C.2       3 UNK         0.5044 
     26 O          26.6568   27.3115    2.0557 O.2       3 UNK        -0.5152 
     27 CA         25.6595   25.4957    0.8582 C.3       3 UNK         0.0319 
     28 CB         25.8732   25.5116   -0.6696 C.3       3 UNK        -0.2001 
     29 N          25.5456   24.1344    1.3766 N.am      3 UNK        -0.4354 
     30 C          24.5894   23.2360    1.1241 C.2       2 UNK         0.4964 
     31 O          23.6305   23.4477    0.3796 O.2       2 UNK        -0.5047 
     32 CA         24.7460   21.8650    1.8228 C.3       2 UNK         0.0288 
     33 CB         23.6856   20.8432    1.3693 C.3       2 UNK        -0.2113 
     34 N          26.0801   21.2782    1.6325 N.am      2 UNK        -0.4145 
     35 C          27.2010   21.6787    2.2491 C.2       1 UNK         0.5006 
     36 O          27.2244   22.5897    3.0842 O.2       1 UNK        -0.5103 
     37 C          29.4697   30.1702    1.3275 C.2       5 UNK         0.5055 
     38 O          30.3653   30.9780    1.5819 O.2       5 UNK        -0.5220 
     39 N          28.2911   30.1408    1.9707 N.am      6 UNK        -0.4450 
     40 CA         27.8874   31.0013    3.0921 C.3       6 UNK         0.0367 
     41 CB         26.4734   30.6038    3.5434 C.3       6 UNK        -0.1929 
     42 C          27.9640   32.5166    2.8323 C.2       6 UNK         0.5070 
     43 O          28.0635   33.2872    3.7867 O.2       6 UNK        -0.5237 
     44 N          27.9359   32.9174    1.5559 N.am      7 UNK        -0.4739 
     45 CA         28.0936   34.3003    1.1085 C.3       7 UNK         0.0276 
     46 CB         27.6092   34.4041   -0.3476 C.3       7 UNK        -0.1927 
     47 C          29.5297   34.8476    1.2353 C.2       7 UNK         0.5013 
     48 O          29.6941   36.0652    1.1386 O.2       7 UNK        -0.5193 
     49 N          30.5375   33.9782    1.4167 N.am      8 UNK        -0.4253 
     50 CA         31.9482   34.3771    1.4461 C.3       8 UNK         0.0242 
     51 CB         32.5339   34.3388    0.0221 C.3       8 UNK        -0.2000 
     52 C          32.8014   33.5435    2.4108 C.2       8 UNK         0.4948 
     53 O          33.5359   34.1260    3.2099 O.2       8 UNK        -0.5275 
     54 N          32.7316   32.2113    2.3014 N.am      9 UNK        -0.4246 
     55 CA         33.5772   31.2801    3.0495 C.3       9 UNK         0.0261 
     56 CB         33.9013   30.0565    2.1756 C.3       9 UNK        -0.1959 
     57 C          32.9189   30.8468    4.3650 C.2       9 UNK         0.5033 
     58 O          33.5648   30.9321    5.4103 O.2       9 UNK        -0.5390 
     59 N          31.6581   30.3906    4.2812 N.am      10 UNK        -0.4215 
     60 CA         30.8462   29.8261    5.3698 C.3       10 UNK         0.0240 
     61 CB         30.3961   30.9382    6.3408 C.3       10 UNK        -0.1982 
     62 C          31.5426   28.6461    6.0756 C.2       10 UNK         0.4970 
     63 O          31.7722   28.6889    7.2865 O.2       10 UNK        -0.4916 
     64 N          31.8951   27.6318    5.2792 N.am      11 UNK        -0.4279 
     65 CA         32.6073   26.4175    5.7024 C.3       11 UNK         0.1003 
     66 C          31.8245   25.5309    6.7137 C.2       11 UNK         0.5709 
     67 N          32.5167   24.6420    7.4139 N.am      11 UNK        -0.7358 
     68 O          30.6067   25.6151    6.8581 O.2       11 UNK        -0.4999 
     69 C69        33.0751   25.6003    4.4704 C.3       12 UNK        -0.0954 
     70 S70        34.2667   26.5464    3.4704 S.3       12 UNK        -0.2268 
     71 C71        34.6921   25.3368    2.1862 C.3       12 UNK         0.0203 
     72 H72        32.6472   21.6401    3.5436 H         1 UNK         0.0888 
     73 H73        31.2853   22.4255    4.3427 H         1 UNK         0.0888 
     74 H74        31.7925   20.8106    4.8465 H         1 UNK         0.0888 
     75 H75        29.2709   22.2168    3.3263 H         1 UNK         0.3017 
     76 H76        28.3597   19.9179    1.9686 H         1 UNK         0.0873 
     77 H77        28.0469   21.0129   -0.3129 H         1 UNK         0.0745 
     78 H78        29.6800   20.5823    0.0452 H         1 UNK         0.0745 
     79 H79        31.5545   21.9648    0.2884 H         1 UNK         0.0705 
     80 H80        31.2763   22.4075   -1.3757 H         1 UNK         0.0705 
     81 H81        32.9279   23.3255    1.6407 H         1 UNK         0.1334 
     82 H82        34.1737   27.1873    0.2698 H         1 UNK         0.1417 
     83 H83        31.1953   24.9976   -1.9100 H         1 UNK         0.1562 
     84 H84        32.8052   26.8956   -2.9444 H         1 UNK         0.0748 
     85 H85        33.4065   28.0638   -1.7981 H         1 UNK         0.0748 
     86 H86        31.2832   30.2080   -0.7547 H         1 UNK         0.0940 
     87 H87        31.8460   28.8332    0.1692 H         1 UNK         0.0940 
     88 H88        28.9028   29.2936   -0.4966 H         1 UNK         0.0703 
     89 H89        28.6916   27.2342    0.2655 H         1 UNK         0.3081 
     90 H90        29.9500   25.0854    2.0765 H         1 UNK         0.0719 
     91 H91        29.9152   25.9133    4.3817 H         1 UNK         0.0809 
     92 H92        28.3237   26.6191    4.1719 H         1 UNK         0.0809 
     93 H93        28.5325   24.8672    4.1451 H         1 UNK         0.0809 
     94 H94        28.0259   24.6300    1.1111 H         1 UNK         0.2990 
     95 H95        24.7411   26.0350    1.0982 H         1 UNK         0.0690 
     96 H96        25.0004   25.1319   -1.2002 H         1 UNK         0.0788 
     97 H97        26.7309   24.9069   -0.9672 H         1 UNK         0.0788 
     98 H98        26.0456   26.5268   -1.0297 H         1 UNK         0.0788 
     99 H99        26.2537   23.8623    2.0555 H         1 UNK         0.2993 
    100 H100       24.5975   22.0408    2.8908 H         1 UNK         0.0949 
    101 H101       23.7820   19.9031    1.9129 H         1 UNK         0.0767 
    102 H102       22.6771   21.2169    1.5526 H         1 UNK         0.0767 
    103 H103       23.7649   20.6254    0.3034 H         1 UNK         0.0767 
    104 H104       26.1453   20.5478    0.9379 H         1 UNK         0.3013 
    105 H105       27.6424   29.3991    1.7342 H         1 UNK         0.3121 
    106 H106       28.5686   30.8018    3.9159 H         1 UNK         0.0774 
    107 H107       26.1496   31.2035    4.3953 H         1 UNK         0.0815 
    108 H108       25.7420   30.7454    2.7468 H         1 UNK         0.0815 
    109 H109       26.4347   29.5588    3.8527 H         1 UNK         0.0815 
    110 H110       27.8453   32.2129    0.8387 H         1 UNK         0.2987 
    111 H111       27.4540   34.9337    1.7274 H         1 UNK         0.0949 
    112 H112       28.2094   33.7874   -1.0179 H         1 UNK         0.0806 
    113 H113       26.5687   34.0935   -0.4440 H         1 UNK         0.0806 
    114 H114       27.6716   35.4318   -0.7085 H         1 UNK         0.0806 
    115 H115       30.3277   32.9906    1.5210 H         1 UNK         0.3010 
    116 H116       32.0197   35.4064    1.8055 H         1 UNK         0.0829 
    117 H117       32.0249   35.0452   -0.6340 H         1 UNK         0.0813 
    118 H118       33.5914   34.6065    0.0253 H         1 UNK         0.0813 
    119 H119       32.4478   33.3472   -0.4239 H         1 UNK         0.0813 
    120 H120       32.0254   31.7972    1.6997 H         1 UNK         0.3038 
    121 H121       34.5245   31.7686    3.2895 H         1 UNK         0.0769 
    122 H122       34.6565   29.4341    2.6563 H         1 UNK         0.0811 
    123 H123       34.2964   30.3501    1.2031 H         1 UNK         0.0811 
    124 H124       33.0266   29.4278    2.0110 H         1 UNK         0.0811 
    125 H125       31.2360   30.3632    3.3592 H         1 UNK         0.3204 
    126 H126       29.9559   29.3984    4.9089 H         1 UNK         0.0748 
    127 H127       29.7194   30.5431    7.0994 H         1 UNK         0.0771 
    128 H128       31.2427   31.3871    6.8614 H         1 UNK         0.0771 
    129 H129       29.8678   31.7349    5.8170 H         1 UNK         0.0771 
    130 H130       31.6428   27.6757    4.2948 H         1 UNK         0.2980 
    131 H131       33.4973   26.7599    6.2344 H         1 UNK         0.0545 
    132 H132       33.5156   24.5562    7.3092 H         1 UNK         0.3459 
    133 H133       32.0297   24.0521    8.0701 H         1 UNK         0.3459 
    134 H134       32.2279   25.3183    3.8428 H         1 UNK         0.0616 
    135 H135       33.5600   24.6719    4.7771 H         1 UNK         0.0616 
    136 H136       34.8468   24.3575    2.6417 H         1 UNK         0.0634 
    137 H137       35.6499   25.6212    1.7484 H         1 UNK         0.0634 
@<TRIPOS>BOND
     1    1    2 1    
     2    1   72 1    
     3    1   73 1    
     4    1   74 1    
     5    2    3 2    
     6    2    4 am   BACKBONE|DICT|INTERRES
     7    4    5 1    
     8    4   75 1    
     9    5    6 1    
    10    5   35 1    
    11    5   76 1    
    12    6    7 1    
    13    6   77 1    
    14    6   78 1    
    15    7    8 1    
    16    8    9 1    
    17    8   79 1    
    18    8   80 1    
    19    9   10 ar   
    20    9   14 ar   
    21   10   11 ar   
    22   10   81 1    
    23   11   12 ar   
    24   11   71 1    
    25   12   13 ar   
    26   12   82 1    
    27   13   14 ar   
    28   13   15 1    
    29   14   83 1    
    30   15   16 1    
    31   15   84 1    
    32   15   85 1    
    33   16   17 1    
    34   17   18 1    
    35   17   86 1    
    36   17   87 1    
    37   18   19 1    
    38   18   37 1    
    39   18   88 1    
    40   19   20 am   BACKBONE|DICT|INTERRES
    41   19   89 1    
    42   20   21 2    
    43   20   22 1    
    44   22   23 1    
    45   22   24 1    
    46   22   90 1    
    47   23   91 1    
    48   23   92 1    
    49   23   93 1    
    50   24   25 am   BACKBONE|DICT|INTERRES
    51   24   94 1    
    52   25   26 2    
    53   25   27 1    
    54   27   28 1    
    55   27   29 1    
    56   27   95 1    
    57   28   96 1    
    58   28   97 1    
    59   28   98 1    
    60   29   30 am   BACKBONE|DICT|INTERRES
    61   29   99 1    
    62   30   31 2    
    63   30   32 1    
    64   32   33 1    
    65   32   34 1    
    66   32  100 1    
    67   33  101 1    
    68   33  102 1    
    69   33  103 1    
    70   34   35 am   BACKBONE|DICT|INTERRES
    71   34  104 1    
    72   35   36 2    
    73   37   38 2    
    74   37   39 am   BACKBONE|DICT|INTERRES
    75   39   40 1    
    76   39  105 1    
    77   40   41 1    
    78   40   42 1    
    79   40  106 1    
    80   41  107 1    
    81   41  108 1    
    82   41  109 1    
    83   42   43 2    
    84   42   44 am   BACKBONE|DICT|INTERRES
    85   44   45 1    
    86   44  110 1    
    87   45   46 1    
    88   45   47 1    
    89   45  111 1    
    90   46  112 1    
    91   46  113 1    
    92   46  114 1    
    93   47   48 2    
    94   47   49 am   BACKBONE|DICT|INTERRES
    95   49   50 1    
    96   49  115 1    
    97   50   51 1    
    98   50   52 1    
    99   50  116 1    
   100   51  117 1    
   101   51  118 1    
   102   51  119 1    
   103   52   53 2    
   104   52   54 am   BACKBONE|DICT|INTERRES
   105   54   55 1    
   106   54  120 1    
   107   55   56 1    
   108   55   57 1    
   109   55  121 1    
   110   56  122 1    
   111   56  123 1    
   112   56  124 1    
   113   57   58 2    
   114   57   59 am   BACKBONE|DICT|INTERRES
   115   59   60 1    
   116   59  125 1    
   117   60   61 1    
   118   60   62 1    
   119   60  126 1    
   120   61  127 1    
   121   61  128 1    
   122   61  129 1    
   123   62   63 2    
   124   62   64 am   BACKBONE|DICT|INTERRES
   125   64   65 1    
   126   64  130 1    
   127   65   66 1    
   128   65   69 1    
   129   65  131 1    
   130   66   67 am   BACKBONE|DICT|INTERRES
   131   66   68 2    
   132   67  132 1    
   133   67  133 1    
   134   69   70 1    
   135   69  134 1    
   136   69  135 1    
   137   70   71 1    
   138   71  136 1    
   139   71  137 1    
@<TRIPOS>SUBSTRUCTURE
     1 UNK         1 GROUP             0       ****    0 ROOT    
