@<TRIPOS>MOLECULE
3R136
137   139    1
SMALL
USER_CHARGES


@<TRIPOS>ATOM
      1 CA         29.8571   22.0234   -3.2338 C.3       0 UNK        -0.1979 
      2 C          28.9543   21.8397   -2.0230 C.2       0 UNK         0.4864 
      3 O          28.0892   20.9636   -2.0356 O.2       0 UNK        -0.5359 
      4 N          29.1505   22.6634   -0.9833 N.am      1 UNK        -0.4318 
      5 CA         28.4015   22.6577    0.2812 C.3       1 UNK         0.0824 
      6 C6         28.6238   21.3634    1.1132 C.3       12 UNK        -0.0944 
      7 S7         28.5375   21.6690    2.9134 S.3       12 UNK        -0.2672 
      8 C8         30.2611   21.4135    3.4361 C.3       12 UNK         0.0333 
      9 C9         31.1357   22.6193    3.1266 C.ar      12 UNK        -0.0807 
     10 C10        31.2845   23.6388    4.0716 C.ar      12 UNK        -0.0894 
     11 C11        32.1240   24.7271    3.8157 C.ar      12 UNK        -0.0804 
     12 C12        32.8085   24.7989    2.5983 C.ar      12 UNK        -0.0824 
     13 C13        32.6650   23.7857    1.6460 C.ar      12 UNK        -0.0762 
     14 C14        31.8285   22.6989    1.9157 C.ar      12 UNK        -0.0782 
     15 C15        33.4433   23.8308    0.3411 C.3       12 UNK         0.0230 
     16 S16        32.3809   24.2961   -1.0589 S.3       12 UNK        -0.2608 
     17 C17        32.3528   26.1162   -0.9431 C.3       12 UNK        -0.0989 
     18 CA         30.9140   26.6450   -0.7432 C.3       5 UNK         0.0716 
     19 N          30.3862   26.3376    0.5958 N.am      5 UNK        -0.4135 
     20 C          29.0837   26.3770    0.9059 C.2       4 UNK         0.5031 
     21 O          28.2069   26.5938    0.0695 O.2       4 UNK        -0.5229 
     22 CA         28.7165   26.0995    2.3771 C.3       4 UNK         0.0329 
     23 CB         29.2169   27.2225    3.3109 C.3       4 UNK        -0.2001 
     24 N          27.2791   25.8357    2.5476 N.am      4 UNK        -0.4303 
     25 C          26.2520   26.7009    2.4812 C.2       3 UNK         0.5044 
     26 O          26.3601   27.9277    2.4674 O.2       3 UNK        -0.5152 
     27 CA         24.8625   26.0441    2.3632 C.3       3 UNK         0.0319 
     28 CB         23.6936   27.0532    2.3948 C.3       3 UNK        -0.2001 
     29 N          24.8155   25.1844    1.1722 N.am      3 UNK        -0.4354 
     30 C          24.9313   25.5592   -0.1126 C.2       2 UNK         0.4964 
     31 O          24.8524   26.7225   -0.5104 O.2       2 UNK        -0.5047 
     32 CA         25.2453   24.4269   -1.1117 C.3       2 UNK         0.0288 
     33 CB         25.1551   24.8835   -2.5803 C.3       2 UNK        -0.2113 
     34 N          26.5872   23.8853   -0.8697 N.am      2 UNK        -0.4145 
     35 C          26.9057   23.0307    0.1135 C.2       1 UNK         0.5006 
     36 O          26.0622   22.5768    0.8905 O.2       1 UNK        -0.5103 
     37 C          30.8150   28.1473   -1.0941 C.2       5 UNK         0.5055 
     38 O          30.7765   28.4860   -2.2779 O.2       5 UNK        -0.5220 
     39 N          30.7488   29.0127   -0.0764 N.am      6 UNK        -0.4450 
     40 CA         30.4499   30.4334   -0.1878 C.3       6 UNK         0.0367 
     41 CB         31.7399   31.2436   -0.4064 C.3       6 UNK        -0.1929 
     42 C          29.7314   30.8038    1.1104 C.2       6 UNK         0.5070 
     43 O          30.3565   30.7571    2.1742 O.2       6 UNK        -0.5237 
     44 N          28.4262   31.0838    1.0089 N.am      7 UNK        -0.4739 
     45 CA         27.5020   31.2872    2.1285 C.3       7 UNK         0.0276 
     46 CB         26.0952   31.5809    1.5813 C.3       7 UNK        -0.1927 
     47 C          27.9628   32.3907    3.0941 C.2       7 UNK         0.5013 
     48 O          28.0184   33.5574    2.7009 O.2       7 UNK        -0.5193 
     49 N          28.3119   31.9789    4.3219 N.am      8 UNK        -0.4253 
     50 CA         28.8459   32.7891    5.4257 C.3       8 UNK         0.0242 
     51 CB         27.8068   33.8296    5.8971 C.3       8 UNK        -0.2000 
     52 C          30.2271   33.4249    5.1529 C.2       8 UNK         0.4948 
     53 O          30.6418   34.2955    5.9205 O.2       8 UNK        -0.5275 
     54 N          30.9215   32.9812    4.0965 N.am      9 UNK        -0.4246 
     55 CA         32.2566   33.4440    3.7147 C.3       9 UNK         0.0261 
     56 CB         32.2105   34.0324    2.2960 C.3       9 UNK        -0.1959 
     57 C          33.2803   32.3057    3.8090 C.2       9 UNK         0.5033 
     58 O          34.3797   32.5294    4.3194 O.2       9 UNK        -0.5390 
     59 N          32.9100   31.1043    3.3441 N.am      10 UNK        -0.4215 
     60 CA         33.7066   29.8881    3.5017 C.3       10 UNK         0.0240 
     61 CB         33.2470   28.8410    2.4746 C.3       10 UNK        -0.1982 
     62 C          33.5814   29.3420    4.9331 C.2       10 UNK         0.4970 
     63 O          32.5406   29.5260    5.5686 O.2       10 UNK        -0.4916 
     64 N          34.6369   28.6592    5.3936 N.am      11 UNK        -0.4279 
     65 CA         34.7665   28.0627    6.7377 C.3       11 UNK         0.1003 
     66 C          34.8471   29.0959    7.9056 C.2       11 UNK         0.5709 
     67 N          35.0694   30.3793    7.6455 N.am      11 UNK        -0.7358 
     68 O          34.7457   28.7267    9.0736 O.2       11 UNK        -0.4999 
     69 C69        33.7346   26.9281    7.0143 C.3       12 UNK        -0.0954 
     70 S70        33.8344   25.5574    5.8142 S.3       12 UNK        -0.2268 
     71 C71        32.3063   25.8123    4.8643 C.3       12 UNK         0.0203 
     72 H72        30.5271   22.8752   -3.1200 H         1 UNK         0.0888 
     73 H73        30.4650   21.1322   -3.3863 H         1 UNK         0.0888 
     74 H74        29.2567   22.1840   -4.1288 H         1 UNK         0.0888 
     75 H75        29.8963   23.3446   -1.0408 H         1 UNK         0.3017 
     76 H76        28.8400   23.4792    0.8457 H         1 UNK         0.0873 
     77 H77        27.8980   20.5927    0.8465 H         1 UNK         0.0745 
     78 H78        29.5956   20.9274    0.8811 H         1 UNK         0.0745 
     79 H79        30.6646   20.5137    2.9689 H         1 UNK         0.0705 
     80 H80        30.2713   21.2209    4.5100 H         1 UNK         0.0705 
     81 H81        30.7592   23.5754    5.0151 H         1 UNK         0.1334 
     82 H82        33.4768   25.6262    2.4065 H         1 UNK         0.1417 
     83 H83        31.7315   21.9078    1.1849 H         1 UNK         0.1562 
     84 H84        33.8651   22.8442    0.1434 H         1 UNK         0.0748 
     85 H85        34.2939   24.5108    0.4097 H         1 UNK         0.0748 
     86 H86        32.7785   26.4944   -1.8753 H         1 UNK         0.0940 
     87 H87        33.0132   26.4681   -0.1487 H         1 UNK         0.0940 
     88 H88        30.2762   26.1370   -1.4707 H         1 UNK         0.0703 
     89 H89        31.0604   26.0752    1.3002 H         1 UNK         0.3081 
     90 H90        29.2207   25.1758    2.6643 H         1 UNK         0.0719 
     91 H91        28.8532   28.2044    3.0077 H         1 UNK         0.0809 
     92 H92        28.9045   27.0515    4.3410 H         1 UNK         0.0809 
     93 H93        30.3033   27.2778    3.3113 H         1 UNK         0.0809 
     94 H94        27.0364   24.8558    2.5717 H         1 UNK         0.2990 
     95 H95        24.7495   25.3871    3.2271 H         1 UNK         0.0690 
     96 H96        22.7321   26.5496    2.2972 H         1 UNK         0.0788 
     97 H97        23.7668   27.7949    1.5992 H         1 UNK         0.0788 
     98 H98        23.6817   27.5982    3.3393 H         1 UNK         0.0788 
     99 H99        24.9262   24.1907    1.3518 H         1 UNK         0.2993 
    100 H100       24.5054   23.6372   -0.9623 H         1 UNK         0.0949 
    101 H101       24.1653   25.2838   -2.8039 H         1 UNK         0.0767 
    102 H102       25.8827   25.6641   -2.8070 H         1 UNK         0.0767 
    103 H103       25.3302   24.0529   -3.2645 H         1 UNK         0.0767 
    104 H104       27.3319   24.2659   -1.4352 H         1 UNK         0.3013 
    105 H105       30.7583   28.6591    0.8693 H         1 UNK         0.3121 
    106 H106       29.7791   30.6025   -1.0333 H         1 UNK         0.0774 
    107 H107       31.5119   32.3006   -0.5441 H         1 UNK         0.0815 
    108 H108       32.4272   31.1596    0.4350 H         1 UNK         0.0815 
    109 H109       32.2680   30.9113   -1.3001 H         1 UNK         0.0815 
    110 H110       28.0101   31.0988    0.0890 H         1 UNK         0.2987 
    111 H111       27.4520   30.3448    2.6772 H         1 UNK         0.0949 
    112 H112       26.0813   32.4765    0.9588 H         1 UNK         0.0806 
    113 H113       25.7210   30.7477    0.9857 H         1 UNK         0.0806 
    114 H114       25.3856   31.7374    2.3949 H         1 UNK         0.0806 
    115 H115       28.2549   30.9879    4.5142 H         1 UNK         0.3010 
    116 H116       29.0058   32.0932    6.2507 H         1 UNK         0.0829 
    117 H117       26.8442   33.3633    6.1069 H         1 UNK         0.0813 
    118 H118       28.1318   34.3215    6.8147 H         1 UNK         0.0813 
    119 H119       27.6473   34.6095    5.1521 H         1 UNK         0.0813 
    120 H120       30.5135   32.2481    3.5258 H         1 UNK         0.3038 
    121 H121       32.5959   34.2333    4.3888 H         1 UNK         0.0769 
    122 H122       33.2047   34.3301    1.9599 H         1 UNK         0.0811 
    123 H123       31.5760   34.9182    2.2602 H         1 UNK         0.0811 
    124 H124       31.8182   33.3167    1.5760 H         1 UNK         0.0811 
    125 H125       31.9735   30.9821    2.9644 H         1 UNK         0.3204 
    126 H126       34.7541   30.1272    3.3050 H         1 UNK         0.0748 
    127 H127       33.8355   27.9280    2.5629 H         1 UNK         0.0771 
    128 H128       32.1992   28.5771    2.6136 H         1 UNK         0.0771 
    129 H129       33.3728   29.2034    1.4547 H         1 UNK         0.0771 
    130 H130       35.4476   28.5585    4.8003 H         1 UNK         0.2980 
    131 H131       35.7515   27.5949    6.7389 H         1 UNK         0.0545 
    132 H132       35.1577   30.7047    6.6960 H         1 UNK         0.3459 
    133 H133       35.1328   31.0319    8.4107 H         1 UNK         0.3459 
    134 H134       33.9108   26.4876    7.9971 H         1 UNK         0.0616 
    135 H135       32.7189   27.3246    7.0471 H         1 UNK         0.0616 
    136 H136       31.4534   25.8313    5.5447 H         1 UNK         0.0634 
    137 H137       32.3416   26.7882    4.3841 H         1 UNK         0.0634 
@<TRIPOS>BOND
     1    1    2 1    
     2    1   72 1    
     3    1   73 1    
     4    1   74 1    
     5    2    3 2    
     6    2    4 am   BACKBONE|DICT|INTERRES
     7    4    5 1    
     8    4   75 1    
     9    5    6 1    
    10    5   35 1    
    11    5   76 1    
    12    6    7 1    
    13    6   77 1    
    14    6   78 1    
    15    7    8 1    
    16    8    9 1    
    17    8   79 1    
    18    8   80 1    
    19    9   10 ar   
    20    9   14 ar   
    21   10   11 ar   
    22   10   81 1    
    23   11   12 ar   
    24   11   71 1    
    25   12   13 ar   
    26   12   82 1    
    27   13   14 ar   
    28   13   15 1    
    29   14   83 1    
    30   15   16 1    
    31   15   84 1    
    32   15   85 1    
    33   16   17 1    
    34   17   18 1    
    35   17   86 1    
    36   17   87 1    
    37   18   19 1    
    38   18   37 1    
    39   18   88 1    
    40   19   20 am   BACKBONE|DICT|INTERRES
    41   19   89 1    
    42   20   21 2    
    43   20   22 1    
    44   22   23 1    
    45   22   24 1    
    46   22   90 1    
    47   23   91 1    
    48   23   92 1    
    49   23   93 1    
    50   24   25 am   BACKBONE|DICT|INTERRES
    51   24   94 1    
    52   25   26 2    
    53   25   27 1    
    54   27   28 1    
    55   27   29 1    
    56   27   95 1    
    57   28   96 1    
    58   28   97 1    
    59   28   98 1    
    60   29   30 am   BACKBONE|DICT|INTERRES
    61   29   99 1    
    62   30   31 2    
    63   30   32 1    
    64   32   33 1    
    65   32   34 1    
    66   32  100 1    
    67   33  101 1    
    68   33  102 1    
    69   33  103 1    
    70   34   35 am   BACKBONE|DICT|INTERRES
    71   34  104 1    
    72   35   36 2    
    73   37   38 2    
    74   37   39 am   BACKBONE|DICT|INTERRES
    75   39   40 1    
    76   39  105 1    
    77   40   41 1    
    78   40   42 1    
    79   40  106 1    
    80   41  107 1    
    81   41  108 1    
    82   41  109 1    
    83   42   43 2    
    84   42   44 am   BACKBONE|DICT|INTERRES
    85   44   45 1    
    86   44  110 1    
    87   45   46 1    
    88   45   47 1    
    89   45  111 1    
    90   46  112 1    
    91   46  113 1    
    92   46  114 1    
    93   47   48 2    
    94   47   49 am   BACKBONE|DICT|INTERRES
    95   49   50 1    
    96   49  115 1    
    97   50   51 1    
    98   50   52 1    
    99   50  116 1    
   100   51  117 1    
   101   51  118 1    
   102   51  119 1    
   103   52   53 2    
   104   52   54 am   BACKBONE|DICT|INTERRES
   105   54   55 1    
   106   54  120 1    
   107   55   56 1    
   108   55   57 1    
   109   55  121 1    
   110   56  122 1    
   111   56  123 1    
   112   56  124 1    
   113   57   58 2    
   114   57   59 am   BACKBONE|DICT|INTERRES
   115   59   60 1    
   116   59  125 1    
   117   60   61 1    
   118   60   62 1    
   119   60  126 1    
   120   61  127 1    
   121   61  128 1    
   122   61  129 1    
   123   62   63 2    
   124   62   64 am   BACKBONE|DICT|INTERRES
   125   64   65 1    
   126   64  130 1    
   127   65   66 1    
   128   65   69 1    
   129   65  131 1    
   130   66   67 am   BACKBONE|DICT|INTERRES
   131   66   68 2    
   132   67  132 1    
   133   67  133 1    
   134   69   70 1    
   135   69  134 1    
   136   69  135 1    
   137   70   71 1    
   138   71  136 1    
   139   71  137 1    
@<TRIPOS>SUBSTRUCTURE
     1 UNK         1 GROUP             0       ****    0 ROOT    
