@<TRIPOS>MOLECULE
3R136
137   139    1
SMALL
USER_CHARGES


@<TRIPOS>ATOM
      1 CA         31.0767   21.8815   -4.2098 C.3       0 UNK        -0.1979 
      2 C          30.5114   23.0381   -3.3987 C.2       0 UNK         0.4864 
      3 O          30.0106   24.0018   -3.9790 O.2       0 UNK        -0.5359 
      4 N          30.5950   22.9504   -2.0635 N.am      1 UNK        -0.4318 
      5 CA         30.0740   23.9468   -1.1210 C.3       1 UNK         0.0824 
      6 C6         30.6296   23.7044    0.3031 C.3       12 UNK        -0.0944 
      7 S7         30.3570   25.1326    1.3917 S.3       12 UNK        -0.2672 
      8 C8         30.4002   24.3532    3.0307 C.3       12 UNK         0.0333 
      9 C9         29.9331   25.3566    4.0670 C.ar      12 UNK        -0.0807 
     10 C10        30.8388   26.2503    4.6457 C.ar      12 UNK        -0.0894 
     11 C11        30.3867   27.2478    5.5130 C.ar      12 UNK        -0.0804 
     12 C12        29.0239   27.3392    5.8091 C.ar      12 UNK        -0.0824 
     13 C13        28.1115   26.4460    5.2394 C.ar      12 UNK        -0.0762 
     14 C14        28.5760   25.4406    4.3876 C.ar      12 UNK        -0.0782 
     15 C15        26.6191   26.6138    5.4970 C.3       12 UNK         0.0230 
     16 S16        25.6421   26.8137    3.9643 S.3       12 UNK        -0.2608 
     17 C17        26.6241   28.0092    2.9863 C.3       12 UNK        -0.0989 
     18 CA         27.1544   27.3660    1.6712 C.3       5 UNK         0.0716 
     19 N          26.0765   26.9656    0.7560 N.am      5 UNK        -0.4135 
     20 C          25.2147   27.7896    0.1343 C.2       4 UNK         0.5031 
     21 O          25.2224   29.0153    0.2569 O.2       4 UNK        -0.5229 
     22 CA         24.1647   27.1597   -0.8005 C.3       4 UNK         0.0329 
     23 CB         24.6120   27.3008   -2.2653 C.3       4 UNK        -0.2001 
     24 N          23.9047   25.7488   -0.5225 N.am      4 UNK        -0.4303 
     25 C          23.3129   25.2600    0.5773 C.2       3 UNK         0.5044 
     26 O          22.7814   25.9607    1.4384 O.2       3 UNK        -0.5152 
     27 CA         23.3350   23.7270    0.7531 C.3       3 UNK         0.0319 
     28 CB         21.9404   23.1329    0.4964 C.3       3 UNK        -0.2001 
     29 N          24.3112   23.0541   -0.1150 N.am      3 UNK        -0.4354 
     30 C          25.6421   23.1962   -0.0289 C.2       2 UNK         0.4964 
     31 O          26.1943   23.8273    0.8753 O.2       2 UNK        -0.5047 
     32 CA         26.4597   22.5543   -1.1700 C.3       2 UNK         0.0288 
     33 CB         25.9225   22.9579   -2.5627 C.3       2 UNK        -0.2113 
     34 N          27.9020   22.8214   -1.1033 N.am      2 UNK        -0.4145 
     35 C          28.5299   24.0093   -1.1437 C.2       1 UNK         0.5006 
     36 O          27.9642   25.1047   -1.2209 O.2       1 UNK        -0.5103 
     37 C          28.2086   28.2321    0.9450 C.2       5 UNK         0.5055 
     38 O          28.6489   29.2547    1.4752 O.2       5 UNK        -0.5220 
     39 N          28.5746   27.8167   -0.2783 N.am      6 UNK        -0.4450 
     40 CA         29.3663   28.5966   -1.2349 C.3       6 UNK         0.0367 
     41 CB         29.3684   27.8792   -2.5944 C.3       6 UNK        -0.1929 
     42 C          30.8031   28.9284   -0.7933 C.2       6 UNK         0.5070 
     43 O          31.3734   29.8882   -1.3129 O.2       6 UNK        -0.5237 
     44 N          31.3680   28.1565    0.1467 N.am      7 UNK        -0.4739 
     45 CA         32.6955   28.4089    0.7186 C.3       7 UNK         0.0276 
     46 CB         33.2127   27.1398    1.4100 C.3       7 UNK        -0.1927 
     47 C          32.7295   29.6150    1.6775 C.2       7 UNK         0.5013 
     48 O          33.8092   30.1752    1.8692 O.2       7 UNK        -0.5193 
     49 N          31.5633   29.9939    2.2311 N.am      8 UNK        -0.4253 
     50 CA         31.2520   31.2011    3.0110 C.3       8 UNK         0.0242 
     51 CB         30.8539   32.3361    2.0442 C.3       8 UNK        -0.2000 
     52 C          32.3343   31.6300    4.0223 C.2       8 UNK         0.4948 
     53 O          32.3365   31.1502    5.1564 O.2       8 UNK        -0.5275 
     54 N          33.2469   32.5106    3.5854 N.am      9 UNK        -0.4246 
     55 CA         34.3814   33.0397    4.3486 C.3       9 UNK         0.0261 
     56 CB         35.1276   34.0705    3.4864 C.3       9 UNK        -0.1959 
     57 C          35.3611   31.9761    4.8809 C.2       9 UNK         0.5033 
     58 O          36.0877   32.2681    5.8318 O.2       9 UNK        -0.5390 
     59 N          35.3487   30.7625    4.3069 N.am      10 UNK        -0.4215 
     60 CA         36.1128   29.5971    4.7687 C.3       10 UNK         0.0240 
     61 CB         35.8404   28.4103    3.8332 C.3       10 UNK        -0.1982 
     62 C          35.8344   29.1871    6.2288 C.2       10 UNK         0.4970 
     63 O          36.7209   28.6123    6.8620 O.2       10 UNK        -0.4916 
     64 N          34.6358   29.4993    6.7414 N.am      11 UNK        -0.4279 
     65 CA         34.2773   29.3398    8.1595 C.3       11 UNK         0.1003 
     66 C          34.8741   30.4342    9.0959 C.2       11 UNK         0.5709 
     67 N          35.5254   31.4791    8.5969 N.am      11 UNK        -0.7358 
     68 O          34.7554   30.3245   10.3142 O.2       11 UNK        -0.4999 
     69 C69        32.7436   29.2131    8.3491 C.3       12 UNK        -0.0954 
     70 S70        32.0708   27.6659    7.6560 S.3       12 UNK        -0.2268 
     71 C71        31.3582   28.2587    6.0955 C.3       12 UNK         0.0203 
     72 H72        31.8648   22.2382   -4.8725 H         1 UNK         0.0888 
     73 H73        31.4960   21.1023   -3.5737 H         1 UNK         0.0888 
     74 H74        30.2933   21.4347   -4.8214 H         1 UNK         0.0888 
     75 H75        31.0347   22.1393   -1.6518 H         1 UNK         0.3017 
     76 H76        30.4413   24.9177   -1.4587 H         1 UNK         0.0873 
     77 H77        31.7066   23.5328    0.2629 H         1 UNK         0.0745 
     78 H78        30.1932   22.8078    0.7473 H         1 UNK         0.0745 
     79 H79        29.7575   23.4715    3.0424 H         1 UNK         0.0705 
     80 H80        31.4130   24.0124    3.2511 H         1 UNK         0.0705 
     81 H81        31.8895   26.1890    4.3996 H         1 UNK         0.1334 
     82 H82        28.6726   28.1247    6.4644 H         1 UNK         0.1417 
     83 H83        27.8701   24.7643    3.9236 H         1 UNK         0.1562 
     84 H84        26.4333   27.4781    6.1365 H         1 UNK         0.0748 
     85 H85        26.2502   25.7439    6.0418 H         1 UNK         0.0748 
     86 H86        27.4461   28.3905    3.5928 H         1 UNK         0.0940 
     87 H87        26.0019   28.8789    2.7720 H         1 UNK         0.0940 
     88 H88        27.6737   26.4448    1.9346 H         1 UNK         0.0703 
     89 H89        26.0064   25.9679    0.5902 H         1 UNK         0.3081 
     90 H90        23.2304   27.7090   -0.6668 H         1 UNK         0.0719 
     91 H91        24.7820   28.3475   -2.5219 H         1 UNK         0.0809 
     92 H92        25.5431   26.7646   -2.4563 H         1 UNK         0.0809 
     93 H93        23.8557   26.9199   -2.9519 H         1 UNK         0.0809 
     94 H94        24.2880   25.0857   -1.1788 H         1 UNK         0.2990 
     95 H95        23.6104   23.5246    1.7905 H         1 UNK         0.0690 
     96 H96        21.9236   22.0600    0.6893 H         1 UNK         0.0788 
     97 H97        21.6141   23.2963   -0.5316 H         1 UNK         0.0788 
     98 H98        21.1956   23.5887    1.1506 H         1 UNK         0.0788 
     99 H99        23.9312   22.5028   -0.8716 H         1 UNK         0.2993 
    100 H100       26.3463   21.4746   -1.0603 H         1 UNK         0.0949 
    101 H101       25.9204   24.0400   -2.6995 H         1 UNK         0.0767 
    102 H102       26.5335   22.5290   -3.3574 H         1 UNK         0.0767 
    103 H103       24.9043   22.6035   -2.7253 H         1 UNK         0.0767 
    104 H104       28.4825   22.0000   -1.0149 H         1 UNK         0.3013 
    105 H105       28.2131   26.9261   -0.6137 H         1 UNK         0.3121 
    106 H106       28.8520   29.5514   -1.3631 H         1 UNK         0.0774 
    107 H107       29.8686   26.9126   -2.5420 H         1 UNK         0.0815 
    108 H108       28.3543   27.7108   -2.9575 H         1 UNK         0.0815 
    109 H109       29.8874   28.4724   -3.3485 H         1 UNK         0.0815 
    110 H110       30.8424   27.3761    0.5195 H         1 UNK         0.2987 
    111 H111       33.3761   28.6368   -0.1049 H         1 UNK         0.0949 
    112 H112       33.1654   26.2762    0.7464 H         1 UNK         0.0806 
    113 H113       34.2555   27.2561    1.7031 H         1 UNK         0.0806 
    114 H114       32.6412   26.9087    2.3079 H         1 UNK         0.0806 
    115 H115       30.7473   29.4439    1.9861 H         1 UNK         0.3010 
    116 H116       30.3693   30.9560    3.6042 H         1 UNK         0.0829 
    117 H117       31.6321   32.5444    1.3092 H         1 UNK         0.0813 
    118 H118       30.6427   33.2617    2.5819 H         1 UNK         0.0813 
    119 H119       29.9501   32.0736    1.4934 H         1 UNK         0.0813 
    120 H120       33.1823   32.8047    2.6217 H         1 UNK         0.3038 
    121 H121       33.9703   33.5544    5.2193 H         1 UNK         0.0769 
    122 H122       34.4730   34.8901    3.1892 H         1 UNK         0.0811 
    123 H123       35.5353   33.6185    2.5811 H         1 UNK         0.0811 
    124 H124       35.9621   34.5093    4.0356 H         1 UNK         0.0811 
    125 H125       34.7410   30.6189    3.5027 H         1 UNK         0.3204 
    126 H126       37.1712   29.8558    4.6991 H         1 UNK         0.0748 
    127 H127       34.7924   28.1107    3.8700 H         1 UNK         0.0771 
    128 H128       36.0884   28.6532    2.7997 H         1 UNK         0.0771 
    129 H129       36.4386   27.5426    4.1148 H         1 UNK         0.0771 
    130 H130       33.9629   29.9890    6.1641 H         1 UNK         0.2980 
    131 H131       34.7192   28.4038    8.5069 H         1 UNK         0.0545 
    132 H132       35.6595   31.5989    7.5977 H         1 UNK         0.3459 
    133 H133       35.9037   32.1633    9.2319 H         1 UNK         0.3459 
    134 H134       32.2307   30.0769    7.9227 H         1 UNK         0.0616 
    135 H135       32.4858   29.2074    9.4098 H         1 UNK         0.0616 
    136 H136       32.1613   28.4617    5.3856 H         1 UNK         0.0634 
    137 H137       30.8411   29.2047    6.2617 H         1 UNK         0.0634 
@<TRIPOS>BOND
     1    1    2 1    
     2    1   72 1    
     3    1   73 1    
     4    1   74 1    
     5    2    3 2    
     6    2    4 am   BACKBONE|DICT|INTERRES
     7    4    5 1    
     8    4   75 1    
     9    5    6 1    
    10    5   35 1    
    11    5   76 1    
    12    6    7 1    
    13    6   77 1    
    14    6   78 1    
    15    7    8 1    
    16    8    9 1    
    17    8   79 1    
    18    8   80 1    
    19    9   10 ar   
    20    9   14 ar   
    21   10   11 ar   
    22   10   81 1    
    23   11   12 ar   
    24   11   71 1    
    25   12   13 ar   
    26   12   82 1    
    27   13   14 ar   
    28   13   15 1    
    29   14   83 1    
    30   15   16 1    
    31   15   84 1    
    32   15   85 1    
    33   16   17 1    
    34   17   18 1    
    35   17   86 1    
    36   17   87 1    
    37   18   19 1    
    38   18   37 1    
    39   18   88 1    
    40   19   20 am   BACKBONE|DICT|INTERRES
    41   19   89 1    
    42   20   21 2    
    43   20   22 1    
    44   22   23 1    
    45   22   24 1    
    46   22   90 1    
    47   23   91 1    
    48   23   92 1    
    49   23   93 1    
    50   24   25 am   BACKBONE|DICT|INTERRES
    51   24   94 1    
    52   25   26 2    
    53   25   27 1    
    54   27   28 1    
    55   27   29 1    
    56   27   95 1    
    57   28   96 1    
    58   28   97 1    
    59   28   98 1    
    60   29   30 am   BACKBONE|DICT|INTERRES
    61   29   99 1    
    62   30   31 2    
    63   30   32 1    
    64   32   33 1    
    65   32   34 1    
    66   32  100 1    
    67   33  101 1    
    68   33  102 1    
    69   33  103 1    
    70   34   35 am   BACKBONE|DICT|INTERRES
    71   34  104 1    
    72   35   36 2    
    73   37   38 2    
    74   37   39 am   BACKBONE|DICT|INTERRES
    75   39   40 1    
    76   39  105 1    
    77   40   41 1    
    78   40   42 1    
    79   40  106 1    
    80   41  107 1    
    81   41  108 1    
    82   41  109 1    
    83   42   43 2    
    84   42   44 am   BACKBONE|DICT|INTERRES
    85   44   45 1    
    86   44  110 1    
    87   45   46 1    
    88   45   47 1    
    89   45  111 1    
    90   46  112 1    
    91   46  113 1    
    92   46  114 1    
    93   47   48 2    
    94   47   49 am   BACKBONE|DICT|INTERRES
    95   49   50 1    
    96   49  115 1    
    97   50   51 1    
    98   50   52 1    
    99   50  116 1    
   100   51  117 1    
   101   51  118 1    
   102   51  119 1    
   103   52   53 2    
   104   52   54 am   BACKBONE|DICT|INTERRES
   105   54   55 1    
   106   54  120 1    
   107   55   56 1    
   108   55   57 1    
   109   55  121 1    
   110   56  122 1    
   111   56  123 1    
   112   56  124 1    
   113   57   58 2    
   114   57   59 am   BACKBONE|DICT|INTERRES
   115   59   60 1    
   116   59  125 1    
   117   60   61 1    
   118   60   62 1    
   119   60  126 1    
   120   61  127 1    
   121   61  128 1    
   122   61  129 1    
   123   62   63 2    
   124   62   64 am   BACKBONE|DICT|INTERRES
   125   64   65 1    
   126   64  130 1    
   127   65   66 1    
   128   65   69 1    
   129   65  131 1    
   130   66   67 am   BACKBONE|DICT|INTERRES
   131   66   68 2    
   132   67  132 1    
   133   67  133 1    
   134   69   70 1    
   135   69  134 1    
   136   69  135 1    
   137   70   71 1    
   138   71  136 1    
   139   71  137 1    
@<TRIPOS>SUBSTRUCTURE
     1 UNK         1 GROUP             0       ****    0 ROOT    
