@<TRIPOS>MOLECULE
3R136
137   139    1
SMALL
USER_CHARGES


@<TRIPOS>ATOM
      1 CA         26.2851   26.9519    2.9763 C.3       0 UNK        -0.1979 
      2 C          26.3582   25.4335    2.9121 C.2       0 UNK         0.4864 
      3 O          25.3696   24.7582    3.2059 O.2       0 UNK        -0.5359 
      4 N          27.5170   24.8909    2.5155 N.am      1 UNK        -0.4318 
      5 CA         27.7616   23.4591    2.3177 C.3       1 UNK         0.0824 
      6 C6         29.2682   23.1611    2.0991 C.3       12 UNK        -0.0944 
      7 S7         30.1465   22.9315    3.6808 S.3       12 UNK        -0.2672 
      8 C8         30.6743   24.6192    4.1122 C.3       12 UNK         0.0333 
      9 C9         31.8250   25.1156    3.2484 C.ar      12 UNK        -0.0807 
     10 C10        33.1019   24.5660    3.4009 C.ar      12 UNK        -0.0894 
     11 C11        34.1754   25.0433    2.6438 C.ar      12 UNK        -0.0804 
     12 C12        33.9643   26.0798    1.7298 C.ar      12 UNK        -0.0824 
     13 C13        32.6986   26.6526    1.5830 C.ar      12 UNK        -0.0762 
     14 C14        31.6290   26.1592    2.3384 C.ar      12 UNK        -0.0782 
     15 C15        32.5149   27.8524    0.6655 C.3       12 UNK         0.0230 
     16 S16        32.1360   27.3659   -1.0483 S.3       12 UNK        -0.2608 
     17 C17        30.3494   27.0112   -0.9363 C.3       12 UNK        -0.0989 
     18 CA         29.4509   27.9771   -1.7653 C.3       5 UNK         0.0716 
     19 N          28.1742   27.3602   -2.1486 N.am      5 UNK        -0.4135 
     20 C          27.2916   26.7772   -1.3245 C.2       4 UNK         0.5031 
     21 O          27.4616   26.6495   -0.1085 O.2       4 UNK        -0.5229 
     22 CA         26.0088   26.2419   -1.9804 C.3       4 UNK         0.0329 
     23 CB         26.3171   25.1748   -3.0479 C.3       4 UNK        -0.2001 
     24 N          25.1609   25.6377   -0.9574 N.am      4 UNK        -0.4303 
     25 C          23.8543   25.8620   -0.7776 C.2       3 UNK         0.5044 
     26 O          23.1871   26.6119   -1.4929 O.2       3 UNK        -0.5152 
     27 CA         23.1809   25.1366    0.4087 C.3       3 UNK         0.0319 
     28 CB         21.6618   24.9425    0.2125 C.3       3 UNK        -0.2001 
     29 N          23.8345   23.8711    0.7696 N.am      3 UNK        -0.4354 
     30 C          23.9678   22.7745    0.0025 C.2       2 UNK         0.4964 
     31 O          23.4579   22.6516   -1.1124 O.2       2 UNK        -0.5047 
     32 CA         24.8360   21.6311    0.5746 C.3       2 UNK         0.0288 
     33 CB         25.4060   20.7059   -0.5229 C.3       2 UNK        -0.2113 
     34 N          25.9071   22.1079    1.4622 N.am      2 UNK        -0.4145 
     35 C          26.8979   22.9571    1.1456 C.2       1 UNK         0.5006 
     36 O          27.1017   23.3947    0.0119 O.2       1 UNK        -0.5103 
     37 C          29.2402   29.3546   -1.0896 C.2       5 UNK         0.5055 
     38 O          28.1083   29.7615   -0.8120 O.2       5 UNK        -0.5220 
     39 N          30.3466   30.0718   -0.8618 N.am      6 UNK        -0.4450 
     40 CA         30.3962   31.3460   -0.1471 C.3       6 UNK         0.0367 
     41 CB         31.7104   32.0675   -0.4983 C.3       6 UNK        -0.1929 
     42 C          30.2669   31.1026    1.3647 C.2       6 UNK         0.5070 
     43 O          31.2803   30.9535    2.0471 O.2       6 UNK        -0.5237 
     44 N          29.0238   31.0429    1.8604 N.am      7 UNK        -0.4739 
     45 CA         28.6692   30.7198    3.2504 C.3       7 UNK         0.0276 
     46 CB         27.1390   30.7216    3.3924 C.3       7 UNK        -0.1927 
     47 C          29.3103   31.6289    4.3182 C.2       7 UNK         0.5013 
     48 O          29.5132   31.1838    5.4477 O.2       7 UNK        -0.5193 
     49 N          29.6470   32.8685    3.9373 N.am      8 UNK        -0.4253 
     50 CA         30.3790   33.8338    4.7607 C.3       8 UNK         0.0242 
     51 CB         30.2585   35.2257    4.1180 C.3       8 UNK        -0.2000 
     52 C          31.8626   33.4737    4.9834 C.2       8 UNK         0.4948 
     53 O          32.4726   34.0279    5.8988 O.2       8 UNK        -0.5275 
     54 N          32.4221   32.5768    4.1597 N.am      9 UNK        -0.4246 
     55 CA         33.8140   32.1294    4.2090 C.3       9 UNK         0.0261 
     56 CB         34.6060   32.8209    3.0828 C.3       9 UNK        -0.1959 
     57 C          33.8698   30.5959    4.1219 C.2       9 UNK         0.5033 
     58 O          34.6955   30.0467    3.3890 O.2       9 UNK        -0.5390 
     59 N          32.9815   29.9243    4.8679 N.am      10 UNK        -0.4215 
     60 CA         32.7596   28.4750    4.8535 C.3       10 UNK         0.0240 
     61 CB         31.3623   28.1875    5.4344 C.3       10 UNK        -0.1982 
     62 C          33.8689   27.6473    5.5385 C.2       10 UNK         0.4970 
     63 O          33.5699   26.8264    6.4077 O.2       10 UNK        -0.4916 
     64 N          35.1267   27.8859    5.1465 N.am      11 UNK        -0.4279 
     65 CA         36.3463   27.2238    5.6448 C.3       11 UNK         0.1003 
     66 C          36.6193   27.4047    7.1722 C.2       11 UNK         0.5709 
     67 N          36.0562   28.4136    7.8273 N.am      11 UNK        -0.7358 
     68 O          37.3831   26.6501    7.7706 O.2       11 UNK        -0.4999 
     69 C69        36.4599   25.7462    5.1627 C.3       12 UNK        -0.0954 
     70 S70        36.7964   25.6412    3.3722 S.3       12 UNK        -0.2268 
     71 C71        35.5607   24.4323    2.7981 C.3       12 UNK         0.0203 
     72 H72        27.2358   27.4153    2.7124 H         1 UNK         0.0888 
     73 H73        25.5300   27.3184    2.2815 H         1 UNK         0.0888 
     74 H74        26.0148   27.2756    3.9809 H         1 UNK         0.0888 
     75 H75        28.2438   25.5041    2.1788 H         1 UNK         0.3017 
     76 H76        27.4312   22.9395    3.2201 H         1 UNK         0.0873 
     77 H77        29.7508   23.9345    1.4987 H         1 UNK         0.0745 
     78 H78        29.4044   22.2310    1.5434 H         1 UNK         0.0745 
     79 H79        30.9955   24.6212    5.1549 H         1 UNK         0.0705 
     80 H80        29.8204   25.2953    4.0610 H         1 UNK         0.0705 
     81 H81        33.2563   23.7674    4.1137 H         1 UNK         0.1334 
     82 H82        34.7956   26.4592    1.1509 H         1 UNK         0.1417 
     83 H83        30.6529   26.6132    2.2490 H         1 UNK         0.1562 
     84 H84        33.4238   28.4566    0.6675 H         1 UNK         0.0748 
     85 H85        31.7300   28.5000    1.0550 H         1 UNK         0.0748 
     86 H86        30.0282   26.9886    0.1042 H         1 UNK         0.0940 
     87 H87        30.2214   25.9893   -1.2974 H         1 UNK         0.0940 
     88 H88        29.9555   28.1770   -2.7121 H         1 UNK         0.0703 
     89 H89        27.9292   27.4498   -3.1240 H         1 UNK         0.3081 
     90 H90        25.4997   27.0875   -2.4472 H         1 UNK         0.0719 
     91 H91        26.8885   25.5887   -3.8790 H         1 UNK         0.0809 
     92 H92        26.8935   24.3473   -2.6316 H         1 UNK         0.0809 
     93 H93        25.3994   24.7604   -3.4662 H         1 UNK         0.0809 
     94 H94        25.6575   25.0338   -0.3120 H         1 UNK         0.2990 
     95 H95        23.3155   25.7936    1.2693 H         1 UNK         0.0690 
     96 H96        21.2126   24.4369    1.0673 H         1 UNK         0.0788 
     97 H97        21.4391   24.3570   -0.6799 H         1 UNK         0.0788 
     98 H98        21.1556   25.9024    0.1038 H         1 UNK         0.0788 
     99 H99        24.3080   23.8845    1.6685 H         1 UNK         0.2993 
    100 H100       24.1671   21.0324    1.1948 H         1 UNK         0.0949 
    101 H101       26.0278   21.2537   -1.2320 H         1 UNK         0.0767 
    102 H102       26.0104   19.9067   -0.0939 H         1 UNK         0.0767 
    103 H103       24.6046   20.2335   -1.0923 H         1 UNK         0.0767 
    104 H104       25.8127   21.8359    2.4317 H         1 UNK         0.3013 
    105 H105       31.2363   29.6545   -1.1011 H         1 UNK         0.3121 
    106 H106       29.5661   31.9771   -0.4723 H         1 UNK         0.0774 
    107 H107       32.5860   31.4728   -0.2336 H         1 UNK         0.0815 
    108 H108       31.7672   32.2908   -1.5637 H         1 UNK         0.0815 
    109 H109       31.7888   33.0154    0.0358 H         1 UNK         0.0815 
    110 H110       28.2553   31.1191    1.2064 H         1 UNK         0.2987 
    111 H111       29.0246   29.7056    3.4391 H         1 UNK         0.0949 
    112 H112       26.6740   30.0163    2.7035 H         1 UNK         0.0806 
    113 H113       26.8397   30.4320    4.4009 H         1 UNK         0.0806 
    114 H114       26.7174   31.7084    3.1975 H         1 UNK         0.0806 
    115 H115       29.4370   33.1429    2.9887 H         1 UNK         0.3010 
    116 H116       29.9042   33.8680    5.7437 H         1 UNK         0.0829 
    117 H117       30.7097   35.2527    3.1253 H         1 UNK         0.0813 
    118 H118       30.7610   35.9809    4.7242 H         1 UNK         0.0813 
    119 H119       29.2164   35.5315    4.0235 H         1 UNK         0.0813 
    120 H120       31.8529   32.1239    3.4465 H         1 UNK         0.3038 
    121 H121       34.2679   32.3995    5.1645 H         1 UNK         0.0769 
    122 H122       34.5624   33.9059    3.1766 H         1 UNK         0.0811 
    123 H123       34.2174   32.5527    2.0994 H         1 UNK         0.0811 
    124 H124       35.6584   32.5358    3.1095 H         1 UNK         0.0811 
    125 H125       32.3524   30.4634    5.4464 H         1 UNK         0.3204 
    126 H126       32.7527   28.1668    3.8101 H         1 UNK         0.0748 
    127 H127       31.2718   28.5419    6.4618 H         1 UNK         0.0771 
    128 H128       30.5840   28.6670    4.8437 H         1 UNK         0.0771 
    129 H129       31.1451   27.1201    5.4387 H         1 UNK         0.0771 
    130 H130       35.2596   28.5937    4.4281 H         1 UNK         0.2980 
    131 H131       37.1686   27.7721    5.1841 H         1 UNK         0.0545 
    132 H132       36.2477   28.5312    8.8097 H         1 UNK         0.3459 
    133 H133       35.4336   29.0466    7.3531 H         1 UNK         0.3459 
    134 H134       35.5593   25.1847    5.4148 H         1 UNK         0.0616 
    135 H135       37.2849   25.2296    5.6552 H         1 UNK         0.0616 
    136 H136       35.5453   23.5795    3.4786 H         1 UNK         0.0634 
    137 H137       35.8792   24.0446    1.8296 H         1 UNK         0.0634 
@<TRIPOS>BOND
     1    1    2 1    
     2    1   72 1    
     3    1   73 1    
     4    1   74 1    
     5    2    3 2    
     6    2    4 am   BACKBONE|DICT|INTERRES
     7    4    5 1    
     8    4   75 1    
     9    5    6 1    
    10    5   35 1    
    11    5   76 1    
    12    6    7 1    
    13    6   77 1    
    14    6   78 1    
    15    7    8 1    
    16    8    9 1    
    17    8   79 1    
    18    8   80 1    
    19    9   10 ar   
    20    9   14 ar   
    21   10   11 ar   
    22   10   81 1    
    23   11   12 ar   
    24   11   71 1    
    25   12   13 ar   
    26   12   82 1    
    27   13   14 ar   
    28   13   15 1    
    29   14   83 1    
    30   15   16 1    
    31   15   84 1    
    32   15   85 1    
    33   16   17 1    
    34   17   18 1    
    35   17   86 1    
    36   17   87 1    
    37   18   19 1    
    38   18   37 1    
    39   18   88 1    
    40   19   20 am   BACKBONE|DICT|INTERRES
    41   19   89 1    
    42   20   21 2    
    43   20   22 1    
    44   22   23 1    
    45   22   24 1    
    46   22   90 1    
    47   23   91 1    
    48   23   92 1    
    49   23   93 1    
    50   24   25 am   BACKBONE|DICT|INTERRES
    51   24   94 1    
    52   25   26 2    
    53   25   27 1    
    54   27   28 1    
    55   27   29 1    
    56   27   95 1    
    57   28   96 1    
    58   28   97 1    
    59   28   98 1    
    60   29   30 am   BACKBONE|DICT|INTERRES
    61   29   99 1    
    62   30   31 2    
    63   30   32 1    
    64   32   33 1    
    65   32   34 1    
    66   32  100 1    
    67   33  101 1    
    68   33  102 1    
    69   33  103 1    
    70   34   35 am   BACKBONE|DICT|INTERRES
    71   34  104 1    
    72   35   36 2    
    73   37   38 2    
    74   37   39 am   BACKBONE|DICT|INTERRES
    75   39   40 1    
    76   39  105 1    
    77   40   41 1    
    78   40   42 1    
    79   40  106 1    
    80   41  107 1    
    81   41  108 1    
    82   41  109 1    
    83   42   43 2    
    84   42   44 am   BACKBONE|DICT|INTERRES
    85   44   45 1    
    86   44  110 1    
    87   45   46 1    
    88   45   47 1    
    89   45  111 1    
    90   46  112 1    
    91   46  113 1    
    92   46  114 1    
    93   47   48 2    
    94   47   49 am   BACKBONE|DICT|INTERRES
    95   49   50 1    
    96   49  115 1    
    97   50   51 1    
    98   50   52 1    
    99   50  116 1    
   100   51  117 1    
   101   51  118 1    
   102   51  119 1    
   103   52   53 2    
   104   52   54 am   BACKBONE|DICT|INTERRES
   105   54   55 1    
   106   54  120 1    
   107   55   56 1    
   108   55   57 1    
   109   55  121 1    
   110   56  122 1    
   111   56  123 1    
   112   56  124 1    
   113   57   58 2    
   114   57   59 am   BACKBONE|DICT|INTERRES
   115   59   60 1    
   116   59  125 1    
   117   60   61 1    
   118   60   62 1    
   119   60  126 1    
   120   61  127 1    
   121   61  128 1    
   122   61  129 1    
   123   62   63 2    
   124   62   64 am   BACKBONE|DICT|INTERRES
   125   64   65 1    
   126   64  130 1    
   127   65   66 1    
   128   65   69 1    
   129   65  131 1    
   130   66   67 am   BACKBONE|DICT|INTERRES
   131   66   68 2    
   132   67  132 1    
   133   67  133 1    
   134   69   70 1    
   135   69  134 1    
   136   69  135 1    
   137   70   71 1    
   138   71  136 1    
   139   71  137 1    
@<TRIPOS>SUBSTRUCTURE
     1 UNK         1 GROUP             0       ****    0 ROOT    
