@<TRIPOS>MOLECULE
3R136
137   139    1
SMALL
USER_CHARGES


@<TRIPOS>ATOM
      1 CA         33.2873   21.0051   -2.6625 C.3       0 UNK        -0.1979 
      2 C          32.2639   22.0788   -3.0024 C.2       0 UNK         0.4864 
      3 O          31.5035   21.9186   -3.9589 O.2       0 UNK        -0.5359 
      4 N          32.2458   23.1744   -2.2334 N.am      1 UNK        -0.4318 
      5 CA         31.2827   24.2720   -2.3562 C.3       1 UNK         0.0824 
      6 C6         31.8093   25.5683   -1.6810 C.3       12 UNK        -0.0944 
      7 S7         32.2481   25.3726    0.0836 S.3       12 UNK        -0.2672 
      8 C8         30.7966   26.1174    0.8815 C.3       12 UNK         0.0333 
      9 C9         30.5854   25.5733    2.2817 C.ar      12 UNK        -0.0807 
     10 C10        31.0791   26.2648    3.3916 C.ar      12 UNK        -0.0894 
     11 C11        30.8191   25.8024    4.6847 C.ar      12 UNK        -0.0804 
     12 C12        30.0524   24.6484    4.8646 C.ar      12 UNK        -0.0824 
     13 C13        29.5265   23.9695    3.7612 C.ar      12 UNK        -0.0762 
     14 C14        29.8285   24.4129    2.4700 C.ar      12 UNK        -0.0782 
     15 C15        28.5341   22.8347    3.9657 C.3       12 UNK         0.0230 
     16 S16        26.8252   23.3736    3.5945 S.3       12 UNK        -0.2608 
     17 C17        26.6282   24.8435    4.6681 C.3       12 UNK        -0.0989 
     18 CA         26.9678   26.1598    3.9124 C.3       5 UNK         0.0716 
     19 N          26.0730   26.4488    2.7910 N.am      5 UNK        -0.4135 
     20 C          24.8183   26.9114    2.8501 C.2       4 UNK         0.5031 
     21 O          24.1492   26.9476    3.8838 O.2       4 UNK        -0.5229 
     22 CA         24.2184   27.4696    1.5413 C.3       4 UNK         0.0329 
     23 CB         23.5896   28.8602    1.7692 C.3       4 UNK        -0.2001 
     24 N          25.1410   27.5199    0.3931 N.am      4 UNK        -0.4303 
     25 C          26.2975   28.1892    0.2662 C.2       3 UNK         0.5044 
     26 O          26.8317   28.8267    1.1805 O.2       3 UNK        -0.5152 
     27 CA         26.9969   28.0462   -1.1000 C.3       3 UNK         0.0319 
     28 CB         28.1850   29.0065   -1.2620 C.3       3 UNK        -0.2001 
     29 N          27.4742   26.6807   -1.3343 N.am      3 UNK        -0.4354 
     30 C          26.7174   25.6326   -1.6907 C.2       2 UNK         0.4964 
     31 O          25.4938   25.6998   -1.8208 O.2       2 UNK        -0.5047 
     32 CA         27.4436   24.2996   -1.9488 C.3       2 UNK         0.0288 
     33 CB         26.7398   23.4454   -3.0210 C.3       2 UNK        -0.2113 
     34 N          28.8418   24.5142   -2.3413 N.am      2 UNK        -0.4145 
     35 C          29.8903   23.8591   -1.8261 C.2       1 UNK         0.5006 
     36 O          29.7921   22.9956   -0.9496 O.2       1 UNK        -0.5103 
     37 C          27.1731   27.3916    4.8234 C.2       5 UNK         0.5055 
     38 O          27.2410   27.2522    6.0463 O.2       5 UNK        -0.5220 
     39 N          27.2611   28.5782    4.2022 N.am      6 UNK        -0.4450 
     40 CA         27.4046   29.8645    4.8852 C.3       6 UNK         0.0367 
     41 CB         26.0125   30.4836    5.1007 C.3       6 UNK        -0.1929 
     42 C          28.3242   30.8463    4.1427 C.2       6 UNK         0.5070 
     43 O          28.8752   31.7345    4.7937 O.2       6 UNK        -0.5237 
     44 N          28.4745   30.7009    2.8192 N.am      7 UNK        -0.4739 
     45 CA         29.3009   31.5676    1.9756 C.3       7 UNK         0.0276 
     46 CB         28.3786   32.3212    0.9973 C.3       7 UNK        -0.1927 
     47 C          30.4047   30.7485    1.2832 C.2       7 UNK         0.5013 
     48 O          30.7441   29.6609    1.7584 O.2       7 UNK        -0.5193 
     49 N          30.9785   31.3003    0.2017 N.am      8 UNK        -0.4253 
     50 CA         32.1155   30.7854   -0.5753 C.3       8 UNK         0.0242 
     51 CB         31.7296   29.5259   -1.3814 C.3       8 UNK        -0.2000 
     52 C          33.3608   30.5975    0.3078 C.2       8 UNK         0.4948 
     53 O          34.0705   31.5738    0.5527 O.2       8 UNK        -0.5275 
     54 N          33.5813   29.3694    0.7987 N.am      9 UNK        -0.4246 
     55 CA         34.6105   29.0411    1.7879 C.3       9 UNK         0.0261 
     56 CB         34.7349   27.5142    1.9124 C.3       9 UNK        -0.1959 
     57 C          34.3519   29.6755    3.1676 C.2       9 UNK         0.5033 
     58 O          35.3131   29.8971    3.9051 O.2       9 UNK        -0.5390 
     59 N          33.0771   29.9500    3.4937 N.am      10 UNK        -0.4215 
     60 CA         32.5446   30.6519    4.6744 C.3       10 UNK         0.0240 
     61 CB         33.0247   32.1151    4.7016 C.3       10 UNK        -0.1982 
     62 C          32.7737   29.9737    6.0404 C.2       10 UNK         0.4970 
     63 O          31.9214   30.1128    6.9177 O.2       10 UNK        -0.4916 
     64 N          33.8861   29.2478    6.1956 N.am      11 UNK        -0.4279 
     65 CA         34.2875   28.4697    7.3806 C.3       11 UNK         0.1003 
     66 C          34.6461   29.3286    8.6322 C.2       11 UNK         0.5709 
     67 N          34.8895   30.6270    8.4956 N.am      11 UNK        -0.7358 
     68 O          34.7409   28.8090    9.7420 O.2       11 UNK        -0.4999 
     69 C69        33.3098   27.3031    7.7107 C.3       12 UNK        -0.0954 
     70 S70        33.0292   26.1790    6.2994 S.3       12 UNK        -0.2268 
     71 C71        31.3071   26.5877    5.8885 C.3       12 UNK         0.0203 
     72 H72        33.9003   21.2836   -1.8055 H         1 UNK         0.0888 
     73 H73        32.7833   20.0678   -2.4283 H         1 UNK         0.0888 
     74 H74        33.9489   20.8346   -3.5114 H         1 UNK         0.0888 
     75 H75        32.8641   23.2396   -1.4370 H         1 UNK         0.3017 
     76 H76        31.1696   24.4839   -3.4220 H         1 UNK         0.0873 
     77 H77        31.0984   26.3876   -1.8014 H         1 UNK         0.0745 
     78 H78        32.7101   25.8982   -2.2010 H         1 UNK         0.0745 
     79 H79        30.9169   27.1988    0.9131 H         1 UNK         0.0705 
     80 H80        29.9020   25.9274    0.2896 H         1 UNK         0.0705 
     81 H81        31.6430   27.1766    3.2521 H         1 UNK         0.1334 
     82 H82        29.8165   24.3141    5.8658 H         1 UNK         0.1417 
     83 H83        29.4156   23.8939    1.6149 H         1 UNK         0.1562 
     84 H84        28.5788   22.4580    4.9888 H         1 UNK         0.0748 
     85 H85        28.7954   21.9976    3.3167 H         1 UNK         0.0748 
     86 H86        27.2607   24.7149    5.5478 H         1 UNK         0.0940 
     87 H87        25.6036   24.8739    5.0416 H         1 UNK         0.0940 
     88 H88        27.9406   26.0408    3.4461 H         1 UNK         0.0703 
     89 H89        26.5129   26.4593    1.8835 H         1 UNK         0.3081 
     90 H90        23.4196   26.7822    1.2591 H         1 UNK         0.0719 
     91 H91        23.1230   29.2384    0.8597 H         1 UNK         0.0809 
     92 H92        24.3313   29.5907    2.0939 H         1 UNK         0.0809 
     93 H93        22.8144   28.8228    2.5357 H         1 UNK         0.0809 
     94 H94        24.8691   26.9514   -0.4049 H         1 UNK         0.2990 
     95 H95        26.2642   28.2957   -1.8707 H         1 UNK         0.0690 
     96 H96        28.6742   28.8724   -2.2267 H         1 UNK         0.0788 
     97 H97        28.9304   28.8607   -0.4803 H         1 UNK         0.0788 
     98 H98        27.8527   30.0423   -1.2184 H         1 UNK         0.0788 
     99 H99        28.4639   26.5322   -1.2187 H         1 UNK         0.2993 
    100 H100       27.3995   23.7561   -1.0023 H         1 UNK         0.0949 
    101 H101       25.7137   23.2140   -2.7319 H         1 UNK         0.0767 
    102 H102       26.7026   23.9582   -3.9828 H         1 UNK         0.0767 
    103 H103       27.2533   22.4949   -3.1677 H         1 UNK         0.0767 
    104 H104       28.9970   25.2009   -3.0677 H         1 UNK         0.3013 
    105 H105       27.1742   28.6041    3.1918 H         1 UNK         0.3121 
    106 H106       27.8643   29.7038    5.8631 H         1 UNK         0.0774 
    107 H107       26.0851   31.4405    5.6194 H         1 UNK         0.0815 
    108 H108       25.5022   30.6618    4.1535 H         1 UNK         0.0815 
    109 H109       25.3790   29.8342    5.7052 H         1 UNK         0.0815 
    110 H110       28.0068   29.9471    2.3274 H         1 UNK         0.2987 
    111 H111       29.8232   32.3098    2.5831 H         1 UNK         0.0949 
    112 H112       27.8350   31.6384    0.3467 H         1 UNK         0.0806 
    113 H113       27.6374   32.9072    1.5410 H         1 UNK         0.0806 
    114 H114       28.9274   33.0217    0.3677 H         1 UNK         0.0806 
    115 H115       30.6487   32.2114   -0.0843 H         1 UNK         0.3010 
    116 H116       32.3729   31.5617   -1.2979 H         1 UNK         0.0829 
    117 H117       30.9702   29.7627   -2.1258 H         1 UNK         0.0813 
    118 H118       32.5887   29.1260   -1.9220 H         1 UNK         0.0813 
    119 H119       31.3375   28.7298   -0.7523 H         1 UNK         0.0813 
    120 H120       32.9282   28.6378    0.5593 H         1 UNK         0.3038 
    121 H121       35.5624   29.4323    1.4226 H         1 UNK         0.0769 
    122 H122       35.5236   27.2434    2.6157 H         1 UNK         0.0811 
    123 H123       34.9851   27.0562    0.9552 H         1 UNK         0.0811 
    124 H124       33.8121   27.0576    2.2700 H         1 UNK         0.0811 
    125 H125       32.3650   29.6961    2.8122 H         1 UNK         0.3204 
    126 H126       31.4636   30.6683    4.5277 H         1 UNK         0.0748 
    127 H127       32.5527   32.6651    5.5170 H         1 UNK         0.0771 
    128 H128       34.1038   32.1873    4.8410 H         1 UNK         0.0771 
    129 H129       32.7715   32.6303    3.7748 H         1 UNK         0.0771 
    130 H130       34.5548   29.2694    5.4291 H         1 UNK         0.2980 
    131 H131       35.2353   28.0108    7.0981 H         1 UNK         0.0545 
    132 H132       34.8310   31.0641    7.5903 H         1 UNK         0.3459 
    133 H133       35.1319   31.1722    9.3078 H         1 UNK         0.3459 
    134 H134       33.7105   26.6936    8.5223 H         1 UNK         0.0616 
    135 H135       32.3567   27.6910    8.0735 H         1 UNK         0.0616 
    136 H136       31.2153   27.6533    5.6827 H         1 UNK         0.0634 
    137 H137       30.6731   26.3886    6.7541 H         1 UNK         0.0634 
@<TRIPOS>BOND
     1    1    2 1    
     2    1   72 1    
     3    1   73 1    
     4    1   74 1    
     5    2    3 2    
     6    2    4 am   BACKBONE|DICT|INTERRES
     7    4    5 1    
     8    4   75 1    
     9    5    6 1    
    10    5   35 1    
    11    5   76 1    
    12    6    7 1    
    13    6   77 1    
    14    6   78 1    
    15    7    8 1    
    16    8    9 1    
    17    8   79 1    
    18    8   80 1    
    19    9   10 ar   
    20    9   14 ar   
    21   10   11 ar   
    22   10   81 1    
    23   11   12 ar   
    24   11   71 1    
    25   12   13 ar   
    26   12   82 1    
    27   13   14 ar   
    28   13   15 1    
    29   14   83 1    
    30   15   16 1    
    31   15   84 1    
    32   15   85 1    
    33   16   17 1    
    34   17   18 1    
    35   17   86 1    
    36   17   87 1    
    37   18   19 1    
    38   18   37 1    
    39   18   88 1    
    40   19   20 am   BACKBONE|DICT|INTERRES
    41   19   89 1    
    42   20   21 2    
    43   20   22 1    
    44   22   23 1    
    45   22   24 1    
    46   22   90 1    
    47   23   91 1    
    48   23   92 1    
    49   23   93 1    
    50   24   25 am   BACKBONE|DICT|INTERRES
    51   24   94 1    
    52   25   26 2    
    53   25   27 1    
    54   27   28 1    
    55   27   29 1    
    56   27   95 1    
    57   28   96 1    
    58   28   97 1    
    59   28   98 1    
    60   29   30 am   BACKBONE|DICT|INTERRES
    61   29   99 1    
    62   30   31 2    
    63   30   32 1    
    64   32   33 1    
    65   32   34 1    
    66   32  100 1    
    67   33  101 1    
    68   33  102 1    
    69   33  103 1    
    70   34   35 am   BACKBONE|DICT|INTERRES
    71   34  104 1    
    72   35   36 2    
    73   37   38 2    
    74   37   39 am   BACKBONE|DICT|INTERRES
    75   39   40 1    
    76   39  105 1    
    77   40   41 1    
    78   40   42 1    
    79   40  106 1    
    80   41  107 1    
    81   41  108 1    
    82   41  109 1    
    83   42   43 2    
    84   42   44 am   BACKBONE|DICT|INTERRES
    85   44   45 1    
    86   44  110 1    
    87   45   46 1    
    88   45   47 1    
    89   45  111 1    
    90   46  112 1    
    91   46  113 1    
    92   46  114 1    
    93   47   48 2    
    94   47   49 am   BACKBONE|DICT|INTERRES
    95   49   50 1    
    96   49  115 1    
    97   50   51 1    
    98   50   52 1    
    99   50  116 1    
   100   51  117 1    
   101   51  118 1    
   102   51  119 1    
   103   52   53 2    
   104   52   54 am   BACKBONE|DICT|INTERRES
   105   54   55 1    
   106   54  120 1    
   107   55   56 1    
   108   55   57 1    
   109   55  121 1    
   110   56  122 1    
   111   56  123 1    
   112   56  124 1    
   113   57   58 2    
   114   57   59 am   BACKBONE|DICT|INTERRES
   115   59   60 1    
   116   59  125 1    
   117   60   61 1    
   118   60   62 1    
   119   60  126 1    
   120   61  127 1    
   121   61  128 1    
   122   61  129 1    
   123   62   63 2    
   124   62   64 am   BACKBONE|DICT|INTERRES
   125   64   65 1    
   126   64  130 1    
   127   65   66 1    
   128   65   69 1    
   129   65  131 1    
   130   66   67 am   BACKBONE|DICT|INTERRES
   131   66   68 2    
   132   67  132 1    
   133   67  133 1    
   134   69   70 1    
   135   69  134 1    
   136   69  135 1    
   137   70   71 1    
   138   71  136 1    
   139   71  137 1    
@<TRIPOS>SUBSTRUCTURE
     1 UNK         1 GROUP             0       ****    0 ROOT    
