@<TRIPOS>MOLECULE
3R136
137   139    1
SMALL
USER_CHARGES


@<TRIPOS>ATOM
      1 CA         25.6299   17.8644    1.2019 C.3       0 UNK        -0.1979 
      2 C          26.9616   18.4822    0.8006 C.2       0 UNK         0.4864 
      3 O          27.9748   17.7821    0.7652 O.2       0 UNK        -0.5359 
      4 N          26.9666   19.7842    0.4972 N.am      1 UNK        -0.4318 
      5 CA         28.1280   20.5545    0.0588 C.3       1 UNK         0.0824 
      6 C6         29.0373   20.9660    1.2483 C.3       12 UNK        -0.0944 
      7 S7         30.7373   21.3618    0.7182 S.3       12 UNK        -0.2672 
      8 C8         30.7778   23.1684    0.9288 C.3       12 UNK         0.0333 
      9 C9         31.0964   23.5636    2.3613 C.ar      12 UNK        -0.0807 
     10 C10        32.4264   23.5732    2.7900 C.ar      12 UNK        -0.0894 
     11 C11        32.7527   23.9771    4.0865 C.ar      12 UNK        -0.0804 
     12 C12        31.7325   24.3519    4.9637 C.ar      12 UNK        -0.0824 
     13 C13        30.3951   24.3452    4.5515 C.ar      12 UNK        -0.0762 
     14 C14        30.0824   23.9505    3.2456 C.ar      12 UNK        -0.0782 
     15 C15        29.2920   24.7177    5.5359 C.3       12 UNK         0.0230 
     16 S16        29.5896   26.3296    6.3394 S.3       12 UNK        -0.2608 
     17 C17        28.2937   27.4053    5.6435 C.3       12 UNK        -0.0989 
     18 CA         28.8649   28.4270    4.6315 C.3       5 UNK         0.0716 
     19 N          29.2813   27.7992    3.3739 N.am      5 UNK        -0.4135 
     20 C          29.9560   28.4233    2.3981 C.2       4 UNK         0.5031 
     21 O          30.3941   29.5692    2.4959 O.2       4 UNK        -0.5229 
     22 CA         30.1498   27.6592    1.0753 C.3       4 UNK         0.0329 
     23 CB         31.4930   26.9155    1.0769 C.3       4 UNK        -0.2001 
     24 N          29.0578   26.7301    0.7494 N.am      4 UNK        -0.4303 
     25 C          27.7830   27.0999    0.5495 C.2       3 UNK         0.5044 
     26 O          27.3916   28.2587    0.6971 O.2       3 UNK        -0.5152 
     27 CA         26.7671   26.0022    0.1642 C.3       3 UNK         0.0319 
     28 CB         25.5463   26.5778   -0.5845 C.3       3 UNK        -0.2001 
     29 N          27.3122   24.8597   -0.5838 N.am      3 UNK        -0.4354 
     30 C          27.9577   24.8760   -1.7593 C.2       2 UNK         0.4964 
     31 O          28.3178   25.9126   -2.3185 O.2       2 UNK        -0.5047 
     32 CA         28.2318   23.5120   -2.4403 C.3       2 UNK         0.0288 
     33 CB         29.3885   23.5931   -3.4554 C.3       2 UNK        -0.2113 
     34 N          28.4954   22.3868   -1.5319 N.am      2 UNK        -0.4145 
     35 C          27.6110   21.7643   -0.7413 C.2       1 UNK         0.5006 
     36 O          26.4381   22.1282   -0.6131 O.2       1 UNK        -0.5103 
     37 C          27.8585   29.5694    4.3863 C.2       5 UNK         0.5055 
     38 O          28.0575   30.6732    4.8979 O.2       5 UNK        -0.5220 
     39 N          26.8148   29.2884    3.5904 N.am      6 UNK        -0.4450 
     40 CA         25.7609   30.2403    3.2268 C.3       6 UNK         0.0367 
     41 CB         24.6085   29.5008    2.5311 C.3       6 UNK        -0.1929 
     42 C          26.2737   31.3918    2.3482 C.2       6 UNK         0.5070 
     43 O          25.7866   32.5144    2.4815 O.2       6 UNK        -0.5237 
     44 N          27.2879   31.1204    1.5157 N.am      7 UNK        -0.4739 
     45 CA         28.0241   32.0902    0.6965 C.3       7 UNK         0.0276 
     46 CB         28.7684   31.3263   -0.4146 C.3       7 UNK        -0.1927 
     47 C          28.9706   32.9976    1.5187 C.2       7 UNK         0.5013 
     48 O          30.1053   33.2341    1.1024 O.2       7 UNK        -0.5193 
     49 N          28.4827   33.4934    2.6653 N.am      8 UNK        -0.4253 
     50 CA         29.1475   34.3722    3.6335 C.3       8 UNK         0.0242 
     51 CB         29.3301   35.7848    3.0370 C.3       8 UNK        -0.2000 
     52 C          30.4555   33.7851    4.2023 C.2       8 UNK         0.4948 
     53 O          31.4374   34.5173    4.3411 O.2       8 UNK        -0.5275 
     54 N          30.4352   32.4823    4.5314 N.am      9 UNK        -0.4246 
     55 CA         31.5512   31.6875    5.0624 C.3       9 UNK         0.0261 
     56 CB         31.8820   32.1095    6.5096 C.3       9 UNK        -0.1959 
     57 C          32.7805   31.7013    4.1325 C.2       9 UNK         0.5033 
     58 O          33.8619   32.1393    4.5305 O.2       9 UNK        -0.5390 
     59 N          32.5802   31.2272    2.8973 N.am      10 UNK        -0.4215 
     60 CA         33.6012   31.1518    1.8500 C.3       10 UNK         0.0240 
     61 CB         32.9134   30.9449    0.4900 C.3       10 UNK        -0.1982 
     62 C          34.6525   30.0539    2.0917 C.2       10 UNK         0.4970 
     63 O          35.7523   30.1553    1.5461 O.2       10 UNK        -0.4916 
     64 N          34.3031   29.0258    2.8771 N.am      11 UNK        -0.4279 
     65 CA         35.1983   27.9249    3.2552 C.3       11 UNK         0.1003 
     66 C          36.3436   28.3923    4.1955 C.2       11 UNK         0.5709 
     67 N          37.5648   27.9272    3.9735 N.am      11 UNK        -0.7358 
     68 O          36.1247   29.1433    5.1439 O.2       11 UNK        -0.4999 
     69 C69        34.4005   26.7408    3.8629 C.3       12 UNK        -0.0954 
     70 S70        35.2235   25.1443    3.5510 S.3       12 UNK        -0.2268 
     71 C71        34.2054   24.0052    4.5424 C.3       12 UNK         0.0203 
     72 H72        25.3497   17.0841    0.4943 H         1 UNK         0.0888 
     73 H73        25.7074   17.4157    2.1923 H         1 UNK         0.0888 
     74 H74        24.8294   18.6042    1.2274 H         1 UNK         0.0888 
     75 H75        26.1044   20.3176    0.4855 H         1 UNK         0.3017 
     76 H76        28.6952   19.9266   -0.6327 H         1 UNK         0.0873 
     77 H77        28.6012   21.7868    1.8196 H         1 UNK         0.0745 
     78 H78        29.1262   20.1379    1.9534 H         1 UNK         0.0745 
     79 H79        31.5385   23.5794    0.2631 H         1 UNK         0.0705 
     80 H80        29.8320   23.6062    0.6112 H         1 UNK         0.0705 
     81 H81        33.2131   23.2803    2.1077 H         1 UNK         0.1334 
     82 H82        31.9776   24.6518    5.9736 H         1 UNK         0.1417 
     83 H83        29.0513   23.9354    2.9209 H         1 UNK         0.1562 
     84 H84        29.2541   23.9514    6.3111 H         1 UNK         0.0748 
     85 H85        28.3144   24.7030    5.0537 H         1 UNK         0.0748 
     86 H86        27.8427   27.9241    6.4923 H         1 UNK         0.0940 
     87 H87        27.4903   26.8138    5.2021 H         1 UNK         0.0940 
     88 H88        29.7517   28.8785    5.0787 H         1 UNK         0.0703 
     89 H89        28.9962   26.8442    3.2254 H         1 UNK         0.3081 
     90 H90        30.1819   28.4009    0.2753 H         1 UNK         0.0719 
     91 H91        32.3242   27.6139    1.1785 H         1 UNK         0.0809 
     92 H92        31.6496   26.3636    0.1501 H         1 UNK         0.0809 
     93 H93        31.5618   26.2149    1.9071 H         1 UNK         0.0809 
     94 H94        29.3057   25.7671    0.5860 H         1 UNK         0.2990 
     95 H95        26.4057   25.5934    1.1088 H         1 UNK         0.0690 
     96 H96        24.8289   25.7963   -0.8350 H         1 UNK         0.0788 
     97 H97        25.8401   27.0727   -1.5109 H         1 UNK         0.0788 
     98 H98        25.0176   27.3121    0.0225 H         1 UNK         0.0788 
     99 H99        27.0111   23.9451   -0.2602 H         1 UNK         0.2993 
    100 H100       27.3235   23.2729   -2.9978 H         1 UNK         0.0949 
    101 H101       29.5328   22.6435   -3.9714 H         1 UNK         0.0767 
    102 H102       29.1908   24.3428   -4.2230 H         1 UNK         0.0767 
    103 H103       30.3290   23.8599   -2.9718 H         1 UNK         0.0767 
    104 H104       29.4434   22.0362   -1.5348 H         1 UNK         0.3013 
    105 H105       26.7655   28.3793    3.1553 H         1 UNK         0.3121 
    106 H106       25.3760   30.6780    4.1505 H         1 UNK         0.0774 
    107 H107       24.9255   29.0644    1.5844 H         1 UNK         0.0815 
    108 H108       23.7857   30.1830    2.3132 H         1 UNK         0.0815 
    109 H109       24.2095   28.7022    3.1564 H         1 UNK         0.0815 
    110 H110       27.5837   30.1523    1.4385 H         1 UNK         0.2987 
    111 H111       27.2962   32.7486    0.2177 H         1 UNK         0.0949 
    112 H112       29.5615   30.7012   -0.0041 H         1 UNK         0.0806 
    113 H113       28.0933   30.6838   -0.9804 H         1 UNK         0.0806 
    114 H114       29.2307   32.0149   -1.1229 H         1 UNK         0.0806 
    115 H115       27.5228   33.2409    2.8846 H         1 UNK         0.3010 
    116 H116       28.4660   34.4593    4.4811 H         1 UNK         0.0829 
    117 H117       30.0362   35.7831    2.2058 H         1 UNK         0.0813 
    118 H118       28.3848   36.1876    2.6735 H         1 UNK         0.0813 
    119 H119       29.7102   36.4810    3.7858 H         1 UNK         0.0813 
    120 H120       29.5676   31.9707    4.3980 H         1 UNK         0.3038 
    121 H121       31.2066   30.6547    5.0971 H         1 UNK         0.0769 
    122 H122       32.6571   31.4699    6.9336 H         1 UNK         0.0811 
    123 H123       32.2451   33.1365    6.5614 H         1 UNK         0.0811 
    124 H124       31.0071   32.0300    7.1547 H         1 UNK         0.0811 
    125 H125       31.6660   30.8347    2.6704 H         1 UNK         0.3204 
    126 H126       34.1282   32.1078    1.8225 H         1 UNK         0.0748 
    127 H127       33.6454   30.9019   -0.3177 H         1 UNK         0.0771 
    128 H128       32.3405   30.0179    0.4621 H         1 UNK         0.0771 
    129 H129       32.2318   31.7647    0.2634 H         1 UNK         0.0771 
    130 H130       33.3944   29.0402    3.3127 H         1 UNK         0.2980 
    131 H131       35.6502   27.5827    2.3216 H         1 UNK         0.0545 
    132 H132       38.3162   28.2099    4.5824 H         1 UNK         0.3459 
    133 H133       37.7457   27.2890    3.2144 H         1 UNK         0.3459 
    134 H134       34.2314   26.8711    4.9337 H         1 UNK         0.0616 
    135 H135       33.4111   26.6788    3.4088 H         1 UNK         0.0616 
    136 H136       34.6221   23.0004    4.4627 H         1 UNK         0.0634 
    137 H137       34.2814   24.2888    5.5933 H         1 UNK         0.0634 
@<TRIPOS>BOND
     1    1    2 1    
     2    1   72 1    
     3    1   73 1    
     4    1   74 1    
     5    2    3 2    
     6    2    4 am   BACKBONE|DICT|INTERRES
     7    4    5 1    
     8    4   75 1    
     9    5    6 1    
    10    5   35 1    
    11    5   76 1    
    12    6    7 1    
    13    6   77 1    
    14    6   78 1    
    15    7    8 1    
    16    8    9 1    
    17    8   79 1    
    18    8   80 1    
    19    9   10 ar   
    20    9   14 ar   
    21   10   11 ar   
    22   10   81 1    
    23   11   12 ar   
    24   11   71 1    
    25   12   13 ar   
    26   12   82 1    
    27   13   14 ar   
    28   13   15 1    
    29   14   83 1    
    30   15   16 1    
    31   15   84 1    
    32   15   85 1    
    33   16   17 1    
    34   17   18 1    
    35   17   86 1    
    36   17   87 1    
    37   18   19 1    
    38   18   37 1    
    39   18   88 1    
    40   19   20 am   BACKBONE|DICT|INTERRES
    41   19   89 1    
    42   20   21 2    
    43   20   22 1    
    44   22   23 1    
    45   22   24 1    
    46   22   90 1    
    47   23   91 1    
    48   23   92 1    
    49   23   93 1    
    50   24   25 am   BACKBONE|DICT|INTERRES
    51   24   94 1    
    52   25   26 2    
    53   25   27 1    
    54   27   28 1    
    55   27   29 1    
    56   27   95 1    
    57   28   96 1    
    58   28   97 1    
    59   28   98 1    
    60   29   30 am   BACKBONE|DICT|INTERRES
    61   29   99 1    
    62   30   31 2    
    63   30   32 1    
    64   32   33 1    
    65   32   34 1    
    66   32  100 1    
    67   33  101 1    
    68   33  102 1    
    69   33  103 1    
    70   34   35 am   BACKBONE|DICT|INTERRES
    71   34  104 1    
    72   35   36 2    
    73   37   38 2    
    74   37   39 am   BACKBONE|DICT|INTERRES
    75   39   40 1    
    76   39  105 1    
    77   40   41 1    
    78   40   42 1    
    79   40  106 1    
    80   41  107 1    
    81   41  108 1    
    82   41  109 1    
    83   42   43 2    
    84   42   44 am   BACKBONE|DICT|INTERRES
    85   44   45 1    
    86   44  110 1    
    87   45   46 1    
    88   45   47 1    
    89   45  111 1    
    90   46  112 1    
    91   46  113 1    
    92   46  114 1    
    93   47   48 2    
    94   47   49 am   BACKBONE|DICT|INTERRES
    95   49   50 1    
    96   49  115 1    
    97   50   51 1    
    98   50   52 1    
    99   50  116 1    
   100   51  117 1    
   101   51  118 1    
   102   51  119 1    
   103   52   53 2    
   104   52   54 am   BACKBONE|DICT|INTERRES
   105   54   55 1    
   106   54  120 1    
   107   55   56 1    
   108   55   57 1    
   109   55  121 1    
   110   56  122 1    
   111   56  123 1    
   112   56  124 1    
   113   57   58 2    
   114   57   59 am   BACKBONE|DICT|INTERRES
   115   59   60 1    
   116   59  125 1    
   117   60   61 1    
   118   60   62 1    
   119   60  126 1    
   120   61  127 1    
   121   61  128 1    
   122   61  129 1    
   123   62   63 2    
   124   62   64 am   BACKBONE|DICT|INTERRES
   125   64   65 1    
   126   64  130 1    
   127   65   66 1    
   128   65   69 1    
   129   65  131 1    
   130   66   67 am   BACKBONE|DICT|INTERRES
   131   66   68 2    
   132   67  132 1    
   133   67  133 1    
   134   69   70 1    
   135   69  134 1    
   136   69  135 1    
   137   70   71 1    
   138   71  136 1    
   139   71  137 1    
@<TRIPOS>SUBSTRUCTURE
     1 UNK         1 GROUP             0       ****    0 ROOT    
