@<TRIPOS>MOLECULE
3R136
137   139    1
SMALL
USER_CHARGES


@<TRIPOS>ATOM
      1 CA         27.5388   24.6606    3.7428 C.3       0 UNK        -0.1979 
      2 C          27.3223   23.4098    2.9083 C.2       0 UNK         0.4864 
      3 O          26.2271   22.8446    2.9338 O.2       0 UNK        -0.5359 
      4 N          28.3543   22.9652    2.1769 N.am      1 UNK        -0.4318 
      5 CA         28.3462   21.7527    1.3515 C.3       1 UNK         0.0824 
      6 C6         29.7563   21.3677    0.8320 C.3       12 UNK        -0.0944 
      7 S7         30.6841   22.7245    0.0295 S.3       12 UNK        -0.2672 
      8 C8         31.9524   23.1452    1.2721 C.3       12 UNK         0.0333 
      9 C9         31.8576   24.6054    1.6898 C.ar      12 UNK        -0.0807 
     10 C10        31.4730   24.9566    2.9880 C.ar      12 UNK        -0.0894 
     11 C11        31.3993   26.2999    3.3744 C.ar      12 UNK        -0.0804 
     12 C12        31.7079   27.2940    2.4351 C.ar      12 UNK        -0.0824 
     13 C13        32.0954   26.9555    1.1368 C.ar      12 UNK        -0.0762 
     14 C14        32.1753   25.6100    0.7725 C.ar      12 UNK        -0.0782 
     15 C15        32.4426   28.0432    0.1311 C.3       12 UNK         0.0230 
     16 S16        31.0235   29.1193   -0.2643 S.3       12 UNK        -0.2608 
     17 C17        29.8891   27.9324   -1.0679 C.3       12 UNK        -0.0989 
     18 CA         28.4272   27.9765   -0.5517 C.3       5 UNK         0.0716 
     19 N          27.6324   26.9006   -1.1232 N.am      5 UNK        -0.4135 
     20 C          27.0653   26.8730   -2.3302 C.2       4 UNK         0.5031 
     21 O          27.1834   27.7692   -3.1669 O.2       4 UNK        -0.5229 
     22 CA         26.2154   25.6338   -2.6582 C.3       4 UNK         0.0329 
     23 CB         27.0459   24.6054   -3.4428 C.3       4 UNK        -0.2001 
     24 N          25.6556   24.9906   -1.4640 N.am      4 UNK        -0.4303 
     25 C          24.6058   25.4597   -0.7692 C.2       3 UNK         0.5044 
     26 O          24.0288   26.5104   -1.0544 O.2       3 UNK        -0.5152 
     27 CA         24.1159   24.6355    0.4458 C.3       3 UNK         0.0319 
     28 CB         22.5953   24.7643    0.6748 C.3       3 UNK        -0.2001 
     29 N          24.5188   23.2238    0.4147 N.am      3 UNK        -0.4354 
     30 C          24.2504   22.3165   -0.5407 C.2       2 UNK         0.4964 
     31 O          23.4630   22.5150   -1.4671 O.2       2 UNK        -0.5047 
     32 CA         25.0229   20.9778   -0.4809 C.3       2 UNK         0.0288 
     33 CB         25.3646   20.4456   -1.8894 C.3       2 UNK        -0.2113 
     34 N          26.2358   21.0139    0.3528 N.am      2 UNK        -0.4145 
     35 C          27.2867   21.8432    0.2328 C.2       1 UNK         0.5006 
     36 O          27.3908   22.6986   -0.6497 O.2       1 UNK        -0.5103 
     37 C          28.2837   27.7970    0.9680 C.2       5 UNK         0.5055 
     38 O          28.2600   26.6550    1.4335 O.2       5 UNK        -0.5220 
     39 N          28.1430   28.9070    1.7023 N.am      6 UNK        -0.4450 
     40 CA         27.9240   28.9152    3.1513 C.3       6 UNK         0.0367 
     41 CB         26.4444   28.6025    3.4614 C.3       6 UNK        -0.1929 
     42 C          28.3822   30.2317    3.8056 C.2       6 UNK         0.5070 
     43 O          27.9413   30.5375    4.9146 O.2       6 UNK        -0.5237 
     44 N          29.2367   31.0072    3.1227 N.am      7 UNK        -0.4739 
     45 CA         29.8075   32.2477    3.6513 C.3       7 UNK         0.0276 
     46 CB         30.2717   33.1323    2.4818 C.3       7 UNK        -0.1927 
     47 C          30.9832   31.9060    4.5736 C.2       7 UNK         0.5013 
     48 O          31.9404   31.2968    4.0978 O.2       7 UNK        -0.5193 
     49 N          30.9109   32.2991    5.8534 N.am      8 UNK        -0.4253 
     50 CA         31.8682   31.9338    6.9108 C.3       8 UNK         0.0242 
     51 CB         31.4550   32.6048    8.2303 C.3       8 UNK        -0.2000 
     52 C          33.3443   32.2385    6.5932 C.2       8 UNK         0.4948 
     53 O          34.2186   31.4444    6.9443 O.2       8 UNK        -0.5275 
     54 N          33.5881   33.3544    5.8923 N.am      9 UNK        -0.4246 
     55 CA         34.9069   33.7549    5.3949 C.3       9 UNK         0.0261 
     56 CB         34.8350   35.2047    4.8881 C.3       9 UNK        -0.1959 
     57 C          35.4625   32.8286    4.2954 C.2       9 UNK         0.5033 
     58 O          36.6820   32.7626    4.1344 O.2       9 UNK        -0.5390 
     59 N          34.5758   32.1401    3.5639 N.am      10 UNK        -0.4215 
     60 CA         34.9195   31.1529    2.5429 C.3       10 UNK         0.0240 
     61 CB         33.9211   31.2591    1.3794 C.3       10 UNK        -0.1982 
     62 C          34.9567   29.7302    3.1295 C.2       10 UNK         0.4970 
     63 O          35.7571   28.9233    2.6553 O.2       10 UNK        -0.4916 
     64 N          34.1326   29.4488    4.1536 N.am      11 UNK        -0.4279 
     65 CA         34.1980   28.2174    4.9617 C.3       11 UNK         0.1003 
     66 C          35.5633   28.0515    5.6853 C.2       11 UNK         0.5709 
     67 N          36.0736   29.0972    6.3271 N.am      11 UNK        -0.7358 
     68 O          36.1549   26.9749    5.6669 O.2       11 UNK        -0.4999 
     69 C69        33.0564   28.0935    6.0097 C.3       12 UNK        -0.0954 
     70 S70        31.3636   28.3081    5.3754 S.3       12 UNK        -0.2268 
     71 C71        30.9443   26.6304    4.7970 C.3       12 UNK         0.0203 
     72 H72        28.5183   25.0982    3.5589 H         1 UNK         0.0888 
     73 H73        27.4606   24.4265    4.8038 H         1 UNK         0.0888 
     74 H74        26.7846   25.4069    3.4987 H         1 UNK         0.0888 
     75 H75        29.1981   23.5181    2.1167 H         1 UNK         0.3017 
     76 H76        28.0403   20.9419    2.0166 H         1 UNK         0.0873 
     77 H77        29.6841   20.5433    0.1198 H         1 UNK         0.0745 
     78 H78        30.3440   20.9673    1.6585 H         1 UNK         0.0745 
     79 H79        31.8799   22.4952    2.1445 H         1 UNK         0.0705 
     80 H80        32.9375   22.9598    0.8417 H         1 UNK         0.0705 
     81 H81        31.2300   24.1821    3.7028 H         1 UNK         0.1334 
     82 H82        31.6428   28.3406    2.6970 H         1 UNK         0.1417 
     83 H83        32.4760   25.3381   -0.2304 H         1 UNK         0.1562 
     84 H84        32.8276   27.6128   -0.7947 H         1 UNK         0.0748 
     85 H85        33.2513   28.6434    0.5430 H         1 UNK         0.0748 
     86 H86        30.2825   26.9204   -0.9615 H         1 UNK         0.0940 
     87 H87        29.9022   28.1376   -2.1393 H         1 UNK         0.0940 
     88 H88        27.9761   28.9309   -0.8317 H         1 UNK         0.0703 
     89 H89        27.4781   26.1325   -0.4810 H         1 UNK         0.3081 
     90 H90        25.3887   25.9584   -3.2937 H         1 UNK         0.0719 
     91 H91        27.9013   24.2521   -2.8652 H         1 UNK         0.0809 
     92 H92        26.4462   23.7371   -3.7168 H         1 UNK         0.0809 
     93 H93        27.4322   25.0385   -4.3664 H         1 UNK         0.0809 
     94 H94        26.1054   24.1307   -1.1608 H         1 UNK         0.2990 
     95 H95        24.6163   25.0660    1.3146 H         1 UNK         0.0690 
     96 H96        22.2753   24.1903    1.5444 H         1 UNK         0.0788 
     97 H97        22.0252   24.4152   -0.1867 H         1 UNK         0.0788 
     98 H98        22.3113   25.8023    0.8526 H         1 UNK         0.0788 
     99 H99        25.1547   22.9482    1.1575 H         1 UNK         0.2993 
    100 H100       24.3459   20.2639   -0.0092 H         1 UNK         0.0949 
    101 H101       24.4615   20.2762   -2.4772 H         1 UNK         0.0767 
    102 H102       25.9876   21.1473   -2.4456 H         1 UNK         0.0767 
    103 H103       25.8956   19.4952   -1.8365 H         1 UNK         0.0767 
    104 H104       26.2229   20.3880    1.1469 H         1 UNK         0.3013 
    105 H105       28.1411   29.8077    1.2435 H         1 UNK         0.3121 
    106 H106       28.5412   28.1323    3.5958 H         1 UNK         0.0774 
    107 H107       26.1253   27.6644    3.0086 H         1 UNK         0.0815 
    108 H108       25.7855   29.3896    3.0935 H         1 UNK         0.0815 
    109 H109       26.2780   28.5108    4.5354 H         1 UNK         0.0815 
    110 H110       29.6471   30.6534    2.2710 H         1 UNK         0.2987 
    111 H111       29.0459   32.7924    4.2141 H         1 UNK         0.0949 
    112 H112       31.0245   32.6354    1.8682 H         1 UNK         0.0806 
    113 H113       29.4373   33.4005    1.8336 H         1 UNK         0.0806 
    114 H114       30.7104   34.0622    2.8458 H         1 UNK         0.0806 
    115 H115       30.0837   32.7945    6.1546 H         1 UNK         0.3010 
    116 H116       31.7897   30.8538    7.0460 H         1 UNK         0.0829 
    117 H117       30.4565   32.2942    8.5386 H         1 UNK         0.0813 
    118 H118       32.1383   32.3340    9.0368 H         1 UNK         0.0813 
    119 H119       31.4600   33.6926    8.1503 H         1 UNK         0.0813 
    120 H120       32.8069   33.9462    5.6490 H         1 UNK         0.3038 
    121 H121       35.6056   33.7195    6.2336 H         1 UNK         0.0769 
    122 H122       34.1367   35.3084    4.0567 H         1 UNK         0.0811 
    123 H123       35.8110   35.5438    4.5375 H         1 UNK         0.0811 
    124 H124       34.5226   35.8874    5.6786 H         1 UNK         0.0811 
    125 H125       33.5901   32.1909    3.8050 H         1 UNK         0.3204 
    126 H126       35.9125   31.3758    2.1464 H         1 UNK         0.0748 
    127 H127       33.8109   32.2898    1.0423 H         1 UNK         0.0771 
    128 H128       34.2670   30.6812    0.5226 H         1 UNK         0.0771 
    129 H129       32.9321   30.8900    1.6534 H         1 UNK         0.0771 
    130 H130       33.4277   30.1282    4.4202 H         1 UNK         0.2980 
    131 H131       34.0982   27.3814    4.2672 H         1 UNK         0.0545 
    132 H132       36.9580   29.0061    6.8001 H         1 UNK         0.3459 
    133 H133       35.5447   29.9598    6.3987 H         1 UNK         0.3459 
    134 H134       33.1118   27.1270    6.5137 H         1 UNK         0.0616 
    135 H135       33.1898   28.8399    6.7943 H         1 UNK         0.0616 
    136 H136       29.8606   26.5285    4.8408 H         1 UNK         0.0634 
    137 H137       31.3471   25.8992    5.4992 H         1 UNK         0.0634 
@<TRIPOS>BOND
     1    1    2 1    
     2    1   72 1    
     3    1   73 1    
     4    1   74 1    
     5    2    3 2    
     6    2    4 am   BACKBONE|DICT|INTERRES
     7    4    5 1    
     8    4   75 1    
     9    5    6 1    
    10    5   35 1    
    11    5   76 1    
    12    6    7 1    
    13    6   77 1    
    14    6   78 1    
    15    7    8 1    
    16    8    9 1    
    17    8   79 1    
    18    8   80 1    
    19    9   10 ar   
    20    9   14 ar   
    21   10   11 ar   
    22   10   81 1    
    23   11   12 ar   
    24   11   71 1    
    25   12   13 ar   
    26   12   82 1    
    27   13   14 ar   
    28   13   15 1    
    29   14   83 1    
    30   15   16 1    
    31   15   84 1    
    32   15   85 1    
    33   16   17 1    
    34   17   18 1    
    35   17   86 1    
    36   17   87 1    
    37   18   19 1    
    38   18   37 1    
    39   18   88 1    
    40   19   20 am   BACKBONE|DICT|INTERRES
    41   19   89 1    
    42   20   21 2    
    43   20   22 1    
    44   22   23 1    
    45   22   24 1    
    46   22   90 1    
    47   23   91 1    
    48   23   92 1    
    49   23   93 1    
    50   24   25 am   BACKBONE|DICT|INTERRES
    51   24   94 1    
    52   25   26 2    
    53   25   27 1    
    54   27   28 1    
    55   27   29 1    
    56   27   95 1    
    57   28   96 1    
    58   28   97 1    
    59   28   98 1    
    60   29   30 am   BACKBONE|DICT|INTERRES
    61   29   99 1    
    62   30   31 2    
    63   30   32 1    
    64   32   33 1    
    65   32   34 1    
    66   32  100 1    
    67   33  101 1    
    68   33  102 1    
    69   33  103 1    
    70   34   35 am   BACKBONE|DICT|INTERRES
    71   34  104 1    
    72   35   36 2    
    73   37   38 2    
    74   37   39 am   BACKBONE|DICT|INTERRES
    75   39   40 1    
    76   39  105 1    
    77   40   41 1    
    78   40   42 1    
    79   40  106 1    
    80   41  107 1    
    81   41  108 1    
    82   41  109 1    
    83   42   43 2    
    84   42   44 am   BACKBONE|DICT|INTERRES
    85   44   45 1    
    86   44  110 1    
    87   45   46 1    
    88   45   47 1    
    89   45  111 1    
    90   46  112 1    
    91   46  113 1    
    92   46  114 1    
    93   47   48 2    
    94   47   49 am   BACKBONE|DICT|INTERRES
    95   49   50 1    
    96   49  115 1    
    97   50   51 1    
    98   50   52 1    
    99   50  116 1    
   100   51  117 1    
   101   51  118 1    
   102   51  119 1    
   103   52   53 2    
   104   52   54 am   BACKBONE|DICT|INTERRES
   105   54   55 1    
   106   54  120 1    
   107   55   56 1    
   108   55   57 1    
   109   55  121 1    
   110   56  122 1    
   111   56  123 1    
   112   56  124 1    
   113   57   58 2    
   114   57   59 am   BACKBONE|DICT|INTERRES
   115   59   60 1    
   116   59  125 1    
   117   60   61 1    
   118   60   62 1    
   119   60  126 1    
   120   61  127 1    
   121   61  128 1    
   122   61  129 1    
   123   62   63 2    
   124   62   64 am   BACKBONE|DICT|INTERRES
   125   64   65 1    
   126   64  130 1    
   127   65   66 1    
   128   65   69 1    
   129   65  131 1    
   130   66   67 am   BACKBONE|DICT|INTERRES
   131   66   68 2    
   132   67  132 1    
   133   67  133 1    
   134   69   70 1    
   135   69  134 1    
   136   69  135 1    
   137   70   71 1    
   138   71  136 1    
   139   71  137 1    
@<TRIPOS>SUBSTRUCTURE
     1 UNK         1 GROUP             0       ****    0 ROOT    
