@<TRIPOS>MOLECULE
3R136
137   139    1
SMALL
USER_CHARGES


@<TRIPOS>ATOM
      1 CA         29.6486   19.0037    0.5398 C.3       0 UNK        -0.1979 
      2 C          29.9075   19.8075   -0.7262 C.2       0 UNK         0.4864 
      3 O          29.9265   19.2388   -1.8193 O.2       0 UNK        -0.5359 
      4 N          30.1137   21.1222   -0.5842 N.am      1 UNK        -0.4318 
      5 CA         30.2907   22.0694   -1.6882 C.3       1 UNK         0.0824 
      6 C6         31.1465   23.2918   -1.2562 C.3       12 UNK        -0.0944 
      7 S7         30.4302   24.2837    0.1008 S.3       12 UNK        -0.2672 
      8 C8         31.4633   23.7726    1.5075 C.3       12 UNK         0.0333 
      9 C9         30.9544   24.3903    2.7999 C.ar      12 UNK        -0.0807 
     10 C10        31.4721   25.6077    3.2496 C.ar      12 UNK        -0.0894 
     11 C11        30.9925   26.1949    4.4249 C.ar      12 UNK        -0.0804 
     12 C12        30.0042   25.5376    5.1654 C.ar      12 UNK        -0.0824 
     13 C13        29.4513   24.3392    4.7044 C.ar      12 UNK        -0.0762 
     14 C14        29.9405   23.7623    3.5288 C.ar      12 UNK        -0.0782 
     15 C15        28.2924   23.6891    5.4454 C.3       12 UNK         0.0230 
     16 S16        26.6887   24.1928    4.7336 S.3       12 UNK        -0.2608 
     17 C17        26.4771   25.8769    5.4069 C.3       12 UNK        -0.0989 
     18 CA         26.9333   26.9862    4.4258 C.3       5 UNK         0.0716 
     19 N          26.1588   27.0027    3.1819 N.am      5 UNK        -0.4135 
     20 C          26.4707   27.7413    2.1085 C.2       4 UNK         0.5031 
     21 O          27.4490   28.4927    2.0463 O.2       4 UNK        -0.5229 
     22 CA         25.5033   27.6563    0.9167 C.3       4 UNK         0.0329 
     23 CB         24.5082   28.8277    0.9460 C.3       4 UNK        -0.2001 
     24 N          26.2305   27.6728   -0.3534 N.am      4 UNK        -0.4303 
     25 C          26.9348   26.6382   -0.8281 C.2       3 UNK         0.5044 
     26 O          26.9737   25.5318   -0.2854 O.2       3 UNK        -0.5152 
     27 CA         27.7415   26.9041   -2.1121 C.3       3 UNK         0.0319 
     28 CB         29.0388   27.6648   -1.7927 C.3       3 UNK        -0.2001 
     29 N          28.0890   25.6639   -2.8061 N.am      3 UNK        -0.4354 
     30 C          27.2469   24.9419   -3.5579 C.2       2 UNK         0.4964 
     31 O          26.0871   25.2799   -3.8002 O.2       2 UNK        -0.5047 
     32 CA         27.7886   23.6345   -4.1696 C.3       2 UNK         0.0288 
     33 CB         28.1327   23.8396   -5.6547 C.3       2 UNK        -0.2113 
     34 N          28.9685   23.1061   -3.4753 N.am      2 UNK        -0.4145 
     35 C          28.9273   22.4786   -2.2914 C.2       1 UNK         0.5006 
     36 O          27.8779   22.2378   -1.6869 O.2       1 UNK        -0.5103 
     37 C          26.9183   28.3628    5.1187 C.2       5 UNK         0.5055 
     38 O          25.9323   29.0959    5.0111 O.2       5 UNK        -0.5220 
     39 N          28.0282   28.6909    5.7954 N.am      6 UNK        -0.4450 
     40 CA         28.3587   29.9571    6.4691 C.3       6 UNK         0.0367 
     41 CB         27.3330   30.3110    7.5637 C.3       6 UNK        -0.1929 
     42 C          28.5900   31.1470    5.5162 C.2       6 UNK         0.5070 
     43 O          29.4457   31.9824    5.8048 O.2       6 UNK        -0.5237 
     44 N          27.8461   31.2067    4.4054 N.am      7 UNK        -0.4739 
     45 CA         27.9685   32.2234    3.3601 C.3       7 UNK         0.0276 
     46 CB         26.6953   32.2117    2.4996 C.3       7 UNK        -0.1927 
     47 C          29.2133   32.0352    2.4763 C.2       7 UNK         0.5013 
     48 O          29.7523   33.0289    1.9861 O.2       7 UNK        -0.5193 
     49 N          29.6311   30.7777    2.2673 N.am      8 UNK        -0.4253 
     50 CA         30.7963   30.4073    1.4612 C.3       8 UNK         0.0242 
     51 CB         30.8270   28.8813    1.2878 C.3       8 UNK        -0.2000 
     52 C          32.1203   30.9111    2.0633 C.2       8 UNK         0.4948 
     53 O          32.2869   30.9118    3.2868 O.2       8 UNK        -0.5275 
     54 N          33.0585   31.2816    1.1802 N.am      9 UNK        -0.4246 
     55 CA         34.3568   31.8920    1.4999 C.3       9 UNK         0.0261 
     56 CB         35.0650   32.2768    0.1902 C.3       9 UNK        -0.1959 
     57 C          35.2916   31.0450    2.3840 C.2       9 UNK         0.5033 
     58 O          36.1908   31.6071    3.0104 O.2       9 UNK        -0.5390 
     59 N          35.0621   29.7256    2.4397 N.am      10 UNK        -0.4215 
     60 CA         35.7380   28.8009    3.3540 C.3       10 UNK         0.0240 
     61 CB         35.4144   27.3548    2.9443 C.3       10 UNK        -0.1982 
     62 C          35.3786   29.0361    4.8349 C.2       10 UNK         0.4970 
     63 O          36.1897   28.7071    5.7014 O.2       10 UNK        -0.4916 
     64 N          34.1897   29.5954    5.0934 N.am      11 UNK        -0.4279 
     65 CA         33.7071   29.9843    6.4246 C.3       11 UNK         0.1003 
     66 C          33.7923   31.5207    6.6129 C.2       11 UNK         0.5709 
     67 N          33.4408   32.3163    5.6084 N.am      11 UNK        -0.7358 
     68 O          34.1888   31.9938    7.6752 O.2       11 UNK        -0.4999 
     69 C69        32.2584   29.4968    6.6830 C.3       12 UNK        -0.0954 
     70 S70        32.0583   27.6881    6.5434 S.3       12 UNK        -0.2268 
     71 C71        31.4711   27.5831    4.8264 C.3       12 UNK         0.0203 
     72 H72        29.6786   19.6279    1.4328 H         1 UNK         0.0888 
     73 H73        28.6681   18.5311    0.4896 H         1 UNK         0.0888 
     74 H74        30.3995   18.2214    0.6481 H         1 UNK         0.0888 
     75 H75        30.0236   21.5447    0.3277 H         1 UNK         0.3017 
     76 H76        30.8406   21.5583   -2.4819 H         1 UNK         0.0873 
     77 H77        32.1405   22.9510   -0.9621 H         1 UNK         0.0745 
     78 H78        31.3170   23.9573   -2.1039 H         1 UNK         0.0745 
     79 H79        31.4657   22.6850    1.5912 H         1 UNK         0.0705 
     80 H80        32.4969   24.0713    1.3253 H         1 UNK         0.0705 
     81 H81        32.2255   26.1113    2.6607 H         1 UNK         0.1334 
     82 H82        29.6266   25.9841    6.0743 H         1 UNK         0.1417 
     83 H83        29.5104   22.8389    3.1654 H         1 UNK         0.1562 
     84 H84        28.3252   23.9292    6.5092 H         1 UNK         0.0748 
     85 H85        28.3796   22.6036    5.3788 H         1 UNK         0.0748 
     86 H86        27.0184   25.9432    6.3526 H         1 UNK         0.0940 
     87 H87        25.4239   26.0100    5.6626 H         1 UNK         0.0940 
     88 H88        27.9610   26.7883    4.1240 H         1 UNK         0.0703 
     89 H89        25.3306   26.4267    3.1644 H         1 UNK         0.3081 
     90 H90        24.9401   26.7226    0.9820 H         1 UNK         0.0719 
     91 H91        25.0116   29.7890    0.8409 H         1 UNK         0.0809 
     92 H92        23.7741   28.7445    0.1443 H         1 UNK         0.0809 
     93 H93        23.9579   28.8503    1.8877 H         1 UNK         0.0809 
     94 H94        26.2854   28.5611   -0.8297 H         1 UNK         0.2990 
     95 H95        27.1337   27.5181   -2.7805 H         1 UNK         0.0690 
     96 H96        29.6075   27.8785   -2.6979 H         1 UNK         0.0788 
     97 H97        29.6816   27.0960   -1.1196 H         1 UNK         0.0788 
     98 H98        28.8258   28.6215   -1.3143 H         1 UNK         0.0788 
     99 H99        29.0021   25.2829   -2.6110 H         1 UNK         0.2993 
    100 H100       26.9886   22.8931   -4.1053 H         1 UNK         0.0949 
    101 H101       28.4466   22.9061   -6.1223 H         1 UNK         0.0767 
    102 H102       27.2660   24.2018   -6.2097 H         1 UNK         0.0767 
    103 H103       28.9325   24.5694   -5.7877 H         1 UNK         0.0767 
    104 H104       29.8614   23.2555   -3.9236 H         1 UNK         0.3013 
    105 H105       28.7769   28.0146    5.8073 H         1 UNK         0.3121 
    106 H106       29.3100   29.7769    6.9715 H         1 UNK         0.0774 
    107 H107       27.6647   31.1774    8.1373 H         1 UNK         0.0815 
    108 H108       26.3561   30.5579    7.1476 H         1 UNK         0.0815 
    109 H109       27.2017   29.4883    8.2664 H         1 UNK         0.0815 
    110 H110       27.1286   30.4986    4.2842 H         1 UNK         0.2987 
    111 H111       28.0501   33.2010    3.8406 H         1 UNK         0.0949 
    112 H112       26.5597   31.2519    2.0000 H         1 UNK         0.0806 
    113 H113       25.8067   32.4065    3.1003 H         1 UNK         0.0806 
    114 H114       26.7391   32.9796    1.7260 H         1 UNK         0.0806 
    115 H115       29.0860   30.0211    2.6592 H         1 UNK         0.3010 
    116 H116       30.6652   30.8623    0.4772 H         1 UNK         0.0829 
    117 H117       29.8980   28.5141    0.8545 H         1 UNK         0.0813 
    118 H118       31.6387   28.5706    0.6290 H         1 UNK         0.0813 
    119 H119       30.9609   28.3711    2.2380 H         1 UNK         0.0813 
    120 H120       32.8365   31.2162    0.1968 H         1 UNK         0.3038 
    121 H121       34.1489   32.8090    2.0554 H         1 UNK         0.0769 
    122 H122       34.4671   32.9749   -0.3960 H         1 UNK         0.0811 
    123 H123       35.2690   31.4032   -0.4303 H         1 UNK         0.0811 
    124 H124       36.0206   32.7640    0.3901 H         1 UNK         0.0811 
    125 H125       34.3177   29.3497    1.8716 H         1 UNK         0.3204 
    126 H126       36.8146   28.9527    3.2507 H         1 UNK         0.0748 
    127 H127       35.9306   26.6425    3.5896 H         1 UNK         0.0771 
    128 H128       34.3480   27.1434    3.0163 H         1 UNK         0.0771 
    129 H129       35.7309   27.1505    1.9213 H         1 UNK         0.0771 
    130 H130       33.6030   29.8936    4.3216 H         1 UNK         0.2980 
    131 H131       34.3410   29.5334    7.1904 H         1 UNK         0.0545 
    132 H132       33.0477   31.9258    4.7581 H         1 UNK         0.3459 
    133 H133       33.4970   33.3146    5.7267 H         1 UNK         0.3459 
    134 H134       31.5650   29.9925    6.0012 H         1 UNK         0.0616 
    135 H135       31.9428   29.7800    7.6887 H         1 UNK         0.0616 
    136 H136       30.6518   28.2866    4.6772 H         1 UNK         0.0634 
    137 H137       32.2766   27.9103    4.1698 H         1 UNK         0.0634 
@<TRIPOS>BOND
     1    1    2 1    
     2    1   72 1    
     3    1   73 1    
     4    1   74 1    
     5    2    3 2    
     6    2    4 am   BACKBONE|DICT|INTERRES
     7    4    5 1    
     8    4   75 1    
     9    5    6 1    
    10    5   35 1    
    11    5   76 1    
    12    6    7 1    
    13    6   77 1    
    14    6   78 1    
    15    7    8 1    
    16    8    9 1    
    17    8   79 1    
    18    8   80 1    
    19    9   10 ar   
    20    9   14 ar   
    21   10   11 ar   
    22   10   81 1    
    23   11   12 ar   
    24   11   71 1    
    25   12   13 ar   
    26   12   82 1    
    27   13   14 ar   
    28   13   15 1    
    29   14   83 1    
    30   15   16 1    
    31   15   84 1    
    32   15   85 1    
    33   16   17 1    
    34   17   18 1    
    35   17   86 1    
    36   17   87 1    
    37   18   19 1    
    38   18   37 1    
    39   18   88 1    
    40   19   20 am   BACKBONE|DICT|INTERRES
    41   19   89 1    
    42   20   21 2    
    43   20   22 1    
    44   22   23 1    
    45   22   24 1    
    46   22   90 1    
    47   23   91 1    
    48   23   92 1    
    49   23   93 1    
    50   24   25 am   BACKBONE|DICT|INTERRES
    51   24   94 1    
    52   25   26 2    
    53   25   27 1    
    54   27   28 1    
    55   27   29 1    
    56   27   95 1    
    57   28   96 1    
    58   28   97 1    
    59   28   98 1    
    60   29   30 am   BACKBONE|DICT|INTERRES
    61   29   99 1    
    62   30   31 2    
    63   30   32 1    
    64   32   33 1    
    65   32   34 1    
    66   32  100 1    
    67   33  101 1    
    68   33  102 1    
    69   33  103 1    
    70   34   35 am   BACKBONE|DICT|INTERRES
    71   34  104 1    
    72   35   36 2    
    73   37   38 2    
    74   37   39 am   BACKBONE|DICT|INTERRES
    75   39   40 1    
    76   39  105 1    
    77   40   41 1    
    78   40   42 1    
    79   40  106 1    
    80   41  107 1    
    81   41  108 1    
    82   41  109 1    
    83   42   43 2    
    84   42   44 am   BACKBONE|DICT|INTERRES
    85   44   45 1    
    86   44  110 1    
    87   45   46 1    
    88   45   47 1    
    89   45  111 1    
    90   46  112 1    
    91   46  113 1    
    92   46  114 1    
    93   47   48 2    
    94   47   49 am   BACKBONE|DICT|INTERRES
    95   49   50 1    
    96   49  115 1    
    97   50   51 1    
    98   50   52 1    
    99   50  116 1    
   100   51  117 1    
   101   51  118 1    
   102   51  119 1    
   103   52   53 2    
   104   52   54 am   BACKBONE|DICT|INTERRES
   105   54   55 1    
   106   54  120 1    
   107   55   56 1    
   108   55   57 1    
   109   55  121 1    
   110   56  122 1    
   111   56  123 1    
   112   56  124 1    
   113   57   58 2    
   114   57   59 am   BACKBONE|DICT|INTERRES
   115   59   60 1    
   116   59  125 1    
   117   60   61 1    
   118   60   62 1    
   119   60  126 1    
   120   61  127 1    
   121   61  128 1    
   122   61  129 1    
   123   62   63 2    
   124   62   64 am   BACKBONE|DICT|INTERRES
   125   64   65 1    
   126   64  130 1    
   127   65   66 1    
   128   65   69 1    
   129   65  131 1    
   130   66   67 am   BACKBONE|DICT|INTERRES
   131   66   68 2    
   132   67  132 1    
   133   67  133 1    
   134   69   70 1    
   135   69  134 1    
   136   69  135 1    
   137   70   71 1    
   138   71  136 1    
   139   71  137 1    
@<TRIPOS>SUBSTRUCTURE
     1 UNK         1 GROUP             0       ****    0 ROOT    
