@<TRIPOS>MOLECULE
3R136
137   139    1
SMALL
USER_CHARGES


@<TRIPOS>ATOM
      1 CA         31.1830   28.0827   -4.8282 C.3       0 UNK        -0.1979 
      2 C          30.3290   28.1390   -3.5701 C.2       0 UNK         0.4864 
      3 O          29.7141   29.1701   -3.2978 O.2       0 UNK        -0.5359 
      4 N          30.3005   27.0432   -2.8013 N.am      1 UNK        -0.4318 
      5 CA         29.5169   26.8904   -1.5699 C.3       1 UNK         0.0824 
      6 C6         29.9230   25.6156   -0.7858 C.3       12 UNK        -0.0944 
      7 S7         31.6975   25.5784   -0.3642 S.3       12 UNK        -0.2672 
      8 C8         31.7004   26.4516    1.2298 C.3       12 UNK         0.0333 
      9 C9         32.3070   25.6060    2.3370 C.ar      12 UNK        -0.0807 
     10 C10        33.5885   25.8948    2.8137 C.ar      12 UNK        -0.0894 
     11 C11        34.1340   25.1620    3.8701 C.ar      12 UNK        -0.0804 
     12 C12        33.3828   24.1376    4.4526 C.ar      12 UNK        -0.0824 
     13 C13        32.0965   23.8406    3.9939 C.ar      12 UNK        -0.0762 
     14 C14        31.5781   24.5589    2.9097 C.ar      12 UNK        -0.0782 
     15 C15        31.2976   22.7440    4.6979 C.3       12 UNK         0.0230 
     16 S16        29.5118   23.0807    4.9139 S.3       12 UNK        -0.2608 
     17 C17        29.4393   24.8203    5.4784 C.3       12 UNK        -0.0989 
     18 CA         28.5773   25.6550    4.4950 C.3       5 UNK         0.0716 
     19 N          27.1685   25.2222    4.5059 N.am      5 UNK        -0.4135 
     20 C          26.2990   25.3917    3.5021 C.2       4 UNK         0.5031 
     21 O          26.5842   25.9953    2.4649 O.2       4 UNK        -0.5229 
     22 CA         24.8753   24.8463    3.6970 C.3       4 UNK         0.0329 
     23 CB         24.1296   25.6417    4.7829 C.3       4 UNK        -0.2001 
     24 N          24.1574   24.9977    2.4331 N.am      4 UNK        -0.4303 
     25 C          23.7476   24.0103    1.6301 C.2       3 UNK         0.5044 
     26 O          23.7282   22.8210    1.9500 O.2       3 UNK        -0.5152 
     27 CA         23.2989   24.4245    0.2129 C.3       3 UNK         0.0319 
     28 CB         21.7712   24.5877    0.1584 C.3       3 UNK        -0.2001 
     29 N          23.9362   25.6622   -0.2611 N.am      3 UNK        -0.4354 
     30 C          25.2426   25.7865   -0.5436 C.2       2 UNK         0.4964 
     31 O          26.0249   24.8326   -0.5285 O.2       2 UNK        -0.5047 
     32 CA         25.7399   27.2096   -0.8879 C.3       2 UNK         0.0288 
     33 CB         25.1943   28.2746    0.0854 C.3       2 UNK        -0.2113 
     34 N          27.2020   27.2948   -0.8821 N.am      2 UNK        -0.4145 
     35 C          28.0016   26.8619   -1.8639 C.2       1 UNK         0.5006 
     36 O          27.5885   26.4185   -2.9408 O.2       1 UNK        -0.5103 
     37 C          28.7504   27.1866    4.6455 C.2       5 UNK         0.5055 
     38 O          29.5548   27.6551    5.4531 O.2       5 UNK        -0.5220 
     39 N          28.0000   27.9277    3.8288 N.am      6 UNK        -0.4450 
     40 CA         28.0859   29.3576    3.5782 C.3       6 UNK         0.0367 
     41 CB         26.7067   29.9851    3.8402 C.3       6 UNK        -0.1929 
     42 C          28.5027   29.5550    2.1125 C.2       6 UNK         0.5070 
     43 O          28.4291   28.6108    1.3193 O.2       6 UNK        -0.5237 
     44 N          28.9207   30.7862    1.7898 N.am      7 UNK        -0.4739 
     45 CA         29.5322   31.2240    0.5254 C.3       7 UNK         0.0276 
     46 CB         28.5965   30.9721   -0.6753 C.3       7 UNK        -0.1927 
     47 C          30.9390   30.6284    0.3103 C.2       7 UNK         0.5013 
     48 O          31.3628   29.7388    1.0521 O.2       7 UNK        -0.5193 
     49 N          31.6741   31.1800   -0.6666 N.am      8 UNK        -0.4253 
     50 CA         33.1002   30.9302   -0.9187 C.3       8 UNK         0.0242 
     51 CB         33.3281   29.5040   -1.4732 C.3       8 UNK        -0.2000 
     52 C          33.9349   31.2744    0.3323 C.2       8 UNK         0.4948 
     53 O          33.9702   32.4454    0.7144 O.2       8 UNK        -0.5275 
     54 N          34.5545   30.2682    0.9650 N.am      9 UNK        -0.4246 
     55 CA         35.2663   30.4124    2.2388 C.3       9 UNK         0.0261 
     56 CB         36.2488   29.2431    2.4130 C.3       9 UNK        -0.1959 
     57 C          34.3315   30.5367    3.4605 C.2       9 UNK         0.5033 
     58 O          34.7742   31.0678    4.4798 O.2       9 UNK        -0.5390 
     59 N          33.0759   30.0697    3.3364 N.am      10 UNK        -0.4215 
     60 CA         31.9787   30.1516    4.3120 C.3       10 UNK         0.0240 
     61 CB         31.4078   31.5855    4.3268 C.3       10 UNK        -0.1982 
     62 C          32.3504   29.6469    5.7213 C.2       10 UNK         0.4970 
     63 O          32.1800   30.3758    6.7015 O.2       10 UNK        -0.4916 
     64 N          32.8921   28.4248    5.7908 N.am      11 UNK        -0.4279 
     65 CA         33.4640   27.8449    7.0179 C.3       11 UNK         0.1003 
     66 C          32.4354   27.4534    8.1195 C.2       11 UNK         0.5709 
     67 N          31.1379   27.3948    7.8452 N.am      11 UNK        -0.7358 
     68 O          32.8278   27.2013    9.2565 O.2       11 UNK        -0.4999 
     69 C69        34.4328   26.6667    6.7274 C.3       12 UNK        -0.0954 
     70 S70        35.6081   27.0040    5.3677 S.3       12 UNK        -0.2268 
     71 C71        35.5340   25.4701    4.3858 C.3       12 UNK         0.0203 
     72 H72        31.9059   28.8980   -4.8287 H         1 UNK         0.0888 
     73 H73        31.7315   27.1442   -4.9074 H         1 UNK         0.0888 
     74 H74        30.5539   28.1846   -5.7120 H         1 UNK         0.0888 
     75 H75        30.8235   26.2261   -3.0804 H         1 UNK         0.3017 
     76 H76        29.7245   27.7603   -0.9421 H         1 UNK         0.0873 
     77 H77        29.7035   24.7229   -1.3750 H         1 UNK         0.0745 
     78 H78        29.3352   25.5167    0.1296 H         1 UNK         0.0745 
     79 H79        30.6950   26.7663    1.5144 H         1 UNK         0.0705 
     80 H80        32.2752   27.3684    1.1073 H         1 UNK         0.0705 
     81 H81        34.1603   26.6931    2.3652 H         1 UNK         0.1334 
     82 H82        33.7996   23.5761    5.2779 H         1 UNK         0.1417 
     83 H83        30.5989   24.3175    2.5220 H         1 UNK         0.1562 
     84 H84        31.7153   22.5549    5.6881 H         1 UNK         0.0748 
     85 H85        31.4112   21.8156    4.1369 H         1 UNK         0.0748 
     86 H86        29.0230   24.8568    6.4864 H         1 UNK         0.0940 
     87 H87        30.4506   25.2215    5.5616 H         1 UNK         0.0940 
     88 H88        28.9537   25.4536    3.4917 H         1 UNK         0.0703 
     89 H89        26.8630   24.7397    5.3382 H         1 UNK         0.3081 
     90 H90        24.9400   23.7956    3.9872 H         1 UNK         0.0719 
     91 H91        23.0996   25.2989    4.8841 H         1 UNK         0.0809 
     92 H92        24.6034   25.5242    5.7581 H         1 UNK         0.0809 
     93 H93        24.1047   26.7090    4.5579 H         1 UNK         0.0809 
     94 H94        24.2120   25.9209    2.0277 H         1 UNK         0.2990 
     95 H95        23.5805   23.6183   -0.4679 H         1 UNK         0.0690 
     96 H96        21.4303   24.8032   -0.8544 H         1 UNK         0.0788 
     97 H97        21.4266   25.3926    0.8090 H         1 UNK         0.0788 
     98 H98        21.2703   23.6730    0.4789 H         1 UNK         0.0788 
     99 H99        23.3476   26.4810   -0.3179 H         1 UNK         0.2993 
    100 H100       25.3825   27.4454   -1.8925 H         1 UNK         0.0949 
    101 H101       25.4510   28.0426    1.1195 H         1 UNK         0.0767 
    102 H102       25.6056   29.2591   -0.1399 H         1 UNK         0.0767 
    103 H103       24.1097   28.3651    0.0236 H         1 UNK         0.0767 
    104 H104       27.6267   27.6395   -0.0212 H         1 UNK         0.3013 
    105 H105       27.4504   27.4122    3.1408 H         1 UNK         0.3121 
    106 H106       28.8294   29.8170    4.2316 H         1 UNK         0.0774 
    107 H107       26.7282   31.0648    3.6881 H         1 UNK         0.0815 
    108 H108       25.9446   29.5763    3.1753 H         1 UNK         0.0815 
    109 H109       26.3826   29.8100    4.8661 H         1 UNK         0.0815 
    110 H110       28.9252   31.4814    2.5223 H         1 UNK         0.2987 
    111 H111       29.6646   32.3028    0.6228 H         1 UNK         0.0949 
    112 H112       28.5016   29.9123   -0.9066 H         1 UNK         0.0806 
    113 H113       27.5966   31.3637   -0.4895 H         1 UNK         0.0806 
    114 H114       28.9709   31.4584   -1.5765 H         1 UNK         0.0806 
    115 H115       31.2612   31.9219   -1.2143 H         1 UNK         0.3010 
    116 H116       33.4103   31.6351   -1.6918 H         1 UNK         0.0829 
    117 H117       32.8008   29.3726   -2.4169 H         1 UNK         0.0813 
    118 H118       34.3842   29.3214   -1.6760 H         1 UNK         0.0813 
    119 H119       32.9770   28.7253   -0.7965 H         1 UNK         0.0813 
    120 H120       34.4711   29.3370    0.5842 H         1 UNK         0.3038 
    121 H121       35.8550   31.3316    2.1956 H         1 UNK         0.0769 
    122 H122       36.8077   29.3403    3.3450 H         1 UNK         0.0811 
    123 H123       36.9772   29.2122    1.6027 H         1 UNK         0.0811 
    124 H124       35.7386   28.2824    2.4429 H         1 UNK         0.0811 
    125 H125       32.7888   29.7181    2.4270 H         1 UNK         0.3204 
    126 H126       31.1988   29.4841    3.9439 H         1 UNK         0.0748 
    127 H127       32.1341   32.3014    4.7135 H         1 UNK         0.0771 
    128 H128       31.1260   31.9102    3.3258 H         1 UNK         0.0771 
    129 H129       30.5190   31.6488    4.9557 H         1 UNK         0.0771 
    130 H130       33.0064   27.8812    4.9488 H         1 UNK         0.2980 
    131 H131       34.0719   28.6344    7.4642 H         1 UNK         0.0545 
    132 H132       30.4970   27.1476    8.5810 H         1 UNK         0.3459 
    133 H133       30.7782   27.6003    6.9174 H         1 UNK         0.3459 
    134 H134       35.0201   26.4378    7.6184 H         1 UNK         0.0616 
    135 H135       33.8630   25.7643    6.5136 H         1 UNK         0.0616 
    136 H136       35.9123   24.6454    4.9919 H         1 UNK         0.0634 
    137 H137       36.2164   25.5636    3.5399 H         1 UNK         0.0634 
@<TRIPOS>BOND
     1    1    2 1    
     2    1   72 1    
     3    1   73 1    
     4    1   74 1    
     5    2    3 2    
     6    2    4 am   BACKBONE|DICT|INTERRES
     7    4    5 1    
     8    4   75 1    
     9    5    6 1    
    10    5   35 1    
    11    5   76 1    
    12    6    7 1    
    13    6   77 1    
    14    6   78 1    
    15    7    8 1    
    16    8    9 1    
    17    8   79 1    
    18    8   80 1    
    19    9   10 ar   
    20    9   14 ar   
    21   10   11 ar   
    22   10   81 1    
    23   11   12 ar   
    24   11   71 1    
    25   12   13 ar   
    26   12   82 1    
    27   13   14 ar   
    28   13   15 1    
    29   14   83 1    
    30   15   16 1    
    31   15   84 1    
    32   15   85 1    
    33   16   17 1    
    34   17   18 1    
    35   17   86 1    
    36   17   87 1    
    37   18   19 1    
    38   18   37 1    
    39   18   88 1    
    40   19   20 am   BACKBONE|DICT|INTERRES
    41   19   89 1    
    42   20   21 2    
    43   20   22 1    
    44   22   23 1    
    45   22   24 1    
    46   22   90 1    
    47   23   91 1    
    48   23   92 1    
    49   23   93 1    
    50   24   25 am   BACKBONE|DICT|INTERRES
    51   24   94 1    
    52   25   26 2    
    53   25   27 1    
    54   27   28 1    
    55   27   29 1    
    56   27   95 1    
    57   28   96 1    
    58   28   97 1    
    59   28   98 1    
    60   29   30 am   BACKBONE|DICT|INTERRES
    61   29   99 1    
    62   30   31 2    
    63   30   32 1    
    64   32   33 1    
    65   32   34 1    
    66   32  100 1    
    67   33  101 1    
    68   33  102 1    
    69   33  103 1    
    70   34   35 am   BACKBONE|DICT|INTERRES
    71   34  104 1    
    72   35   36 2    
    73   37   38 2    
    74   37   39 am   BACKBONE|DICT|INTERRES
    75   39   40 1    
    76   39  105 1    
    77   40   41 1    
    78   40   42 1    
    79   40  106 1    
    80   41  107 1    
    81   41  108 1    
    82   41  109 1    
    83   42   43 2    
    84   42   44 am   BACKBONE|DICT|INTERRES
    85   44   45 1    
    86   44  110 1    
    87   45   46 1    
    88   45   47 1    
    89   45  111 1    
    90   46  112 1    
    91   46  113 1    
    92   46  114 1    
    93   47   48 2    
    94   47   49 am   BACKBONE|DICT|INTERRES
    95   49   50 1    
    96   49  115 1    
    97   50   51 1    
    98   50   52 1    
    99   50  116 1    
   100   51  117 1    
   101   51  118 1    
   102   51  119 1    
   103   52   53 2    
   104   52   54 am   BACKBONE|DICT|INTERRES
   105   54   55 1    
   106   54  120 1    
   107   55   56 1    
   108   55   57 1    
   109   55  121 1    
   110   56  122 1    
   111   56  123 1    
   112   56  124 1    
   113   57   58 2    
   114   57   59 am   BACKBONE|DICT|INTERRES
   115   59   60 1    
   116   59  125 1    
   117   60   61 1    
   118   60   62 1    
   119   60  126 1    
   120   61  127 1    
   121   61  128 1    
   122   61  129 1    
   123   62   63 2    
   124   62   64 am   BACKBONE|DICT|INTERRES
   125   64   65 1    
   126   64  130 1    
   127   65   66 1    
   128   65   69 1    
   129   65  131 1    
   130   66   67 am   BACKBONE|DICT|INTERRES
   131   66   68 2    
   132   67  132 1    
   133   67  133 1    
   134   69   70 1    
   135   69  134 1    
   136   69  135 1    
   137   70   71 1    
   138   71  136 1    
   139   71  137 1    
@<TRIPOS>SUBSTRUCTURE
     1 UNK         1 GROUP             0       ****    0 ROOT    
