@<TRIPOS>MOLECULE
3R136
137   139    1
SMALL
USER_CHARGES


@<TRIPOS>ATOM
      1 CA         28.4818   21.7925   -2.2299 C.3       0 UNK        -0.1979 
      2 C          29.0534   23.0471   -1.5877 C.2       0 UNK         0.4864 
      3 O          28.5305   23.5023   -0.5720 O.2       0 UNK        -0.5359 
      4 N          30.1099   23.6180   -2.1832 N.am      1 UNK        -0.4318 
      5 CA         30.8690   24.8052   -1.7478 C.3       1 UNK         0.0824 
      6 C6         31.4611   24.7041   -0.3140 C.3       12 UNK        -0.0944 
      7 S7         32.4495   23.1868   -0.0671 S.3       12 UNK        -0.2672 
      8 C8         33.4501   23.6094    1.3980 C.3       12 UNK         0.0333 
      9 C9         32.6004   24.0277    2.5918 C.ar      12 UNK        -0.0807 
     10 C10        32.7795   25.2873    3.1682 C.ar      12 UNK        -0.0894 
     11 C11        31.9811   25.7021    4.2375 C.ar      12 UNK        -0.0804 
     12 C12        31.0018   24.8378    4.7400 C.ar      12 UNK        -0.0824 
     13 C13        30.8035   23.5789    4.1649 C.ar      12 UNK        -0.0762 
     14 C14        31.6217   23.1717    3.1056 C.ar      12 UNK        -0.0782 
     15 C15        29.6798   22.6699    4.6510 C.3       12 UNK         0.0230 
     16 S16        28.0071   23.3439    4.3370 S.3       12 UNK        -0.2608 
     17 C17        28.0757   23.8682    2.5810 C.3       12 UNK        -0.0989 
     18 CA         27.6303   25.3302    2.2982 C.3       5 UNK         0.0716 
     19 N          26.1655   25.4692    2.2570 N.am      5 UNK        -0.4135 
     20 C          25.5116   26.6016    1.9607 C.2       4 UNK         0.5031 
     21 O          26.0373   27.7161    1.9071 O.2       4 UNK        -0.5229 
     22 CA         24.0347   26.4893    1.5816 C.3       4 UNK         0.0329 
     23 CB         23.1360   27.2221    2.5910 C.3       4 UNK        -0.2001 
     24 N          23.9711   27.1473    0.2843 N.am      4 UNK        -0.4303 
     25 C          23.4876   26.6152   -0.8407 C.2       3 UNK         0.5044 
     26 O          22.7250   25.6489   -0.8811 O.2       3 UNK        -0.5152 
     27 CA         24.0108   27.2380   -2.1502 C.3       3 UNK         0.0319 
     28 CB         23.1944   28.4859   -2.5237 C.3       3 UNK        -0.2001 
     29 N          25.4435   27.5799   -2.1053 N.am      3 UNK        -0.4354 
     30 C          26.4366   26.7051   -1.8743 C.2       2 UNK         0.4964 
     31 O          26.2511   25.4999   -1.6898 O.2       2 UNK        -0.5047 
     32 CA         27.8708   27.2618   -1.8519 C.3       2 UNK         0.0288 
     33 CB         28.0774   28.3270   -0.7563 C.3       2 UNK        -0.2113 
     34 N          28.8027   26.1535   -1.6538 N.am      2 UNK        -0.4145 
     35 C          30.1057   26.1342   -1.9520 C.2       1 UNK         0.5006 
     36 O          30.7108   27.1071   -2.4052 O.2       1 UNK        -0.5103 
     37 C          28.3451   26.3791    3.1793 C.2       5 UNK         0.5055 
     38 O          29.3603   26.9336    2.7615 O.2       5 UNK        -0.5220 
     39 N          27.7467   26.6863    4.3406 N.am      6 UNK        -0.4450 
     40 CA         28.2018   27.6676    5.3295 C.3       6 UNK         0.0367 
     41 CB         27.2413   27.6398    6.5292 C.3       6 UNK        -0.1929 
     42 C          28.3605   29.1084    4.8043 C.2       6 UNK         0.5070 
     43 O          29.0453   29.9009    5.4507 O.2       6 UNK        -0.5237 
     44 N          27.7400   29.4340    3.6610 N.am      7 UNK        -0.4739 
     45 CA         27.8873   30.7227    2.9828 C.3       7 UNK         0.0276 
     46 CB         26.6926   30.9349    2.0382 C.3       7 UNK        -0.1927 
     47 C          29.2192   30.8693    2.2201 C.2       7 UNK         0.5013 
     48 O          29.5371   31.9872    1.8097 O.2       7 UNK        -0.5193 
     49 N          29.9670   29.7715    2.0201 N.am      8 UNK        -0.4253 
     50 CA         31.2770   29.7795    1.3645 C.3       8 UNK         0.0242 
     51 CB         31.7112   28.3380    1.0612 C.3       8 UNK        -0.2000 
     52 C          32.3376   30.4985    2.2161 C.2       8 UNK         0.4948 
     53 O          32.3658   30.3311    3.4384 O.2       8 UNK        -0.5275 
     54 N          33.2156   31.2554    1.5418 N.am      9 UNK        -0.4246 
     55 CA         34.2295   32.1385    2.1352 C.3       9 UNK         0.0261 
     56 CB         34.9787   32.8739    1.0120 C.3       9 UNK        -0.1959 
     57 C          35.2299   31.4557    3.0850 C.2       9 UNK         0.5033 
     58 O          35.7568   32.1224    3.9768 O.2       9 UNK        -0.5390 
     59 N          35.4466   30.1441    2.9119 N.am      10 UNK        -0.4215 
     60 CA         36.2758   29.2993    3.7780 C.3       10 UNK         0.0240 
     61 CB         36.3388   27.8817    3.1864 C.3       10 UNK        -0.1982 
     62 C          35.8079   29.2466    5.2465 C.2       10 UNK         0.4970 
     63 O          36.6379   29.0090    6.1249 O.2       10 UNK        -0.4916 
     64 N          34.5109   29.4802    5.4861 N.am      11 UNK        -0.4279 
     65 CA         33.9103   29.5879    6.8236 C.3       11 UNK         0.1003 
     66 C          33.9029   31.0430    7.3794 C.2       11 UNK         0.5709 
     67 N          34.4368   32.0398    6.6807 N.am      11 UNK        -0.7358 
     68 O          33.4209   31.2741    8.4860 O.2       11 UNK        -0.4999 
     69 C69        32.4982   28.9455    6.8616 C.3       12 UNK        -0.0954 
     70 S70        32.5422   27.1481    6.5490 S.3       12 UNK        -0.2268 
     71 C71        32.1214   27.1161    4.7825 C.3       12 UNK         0.0203 
     72 H72        27.4409   21.9567   -2.5076 H         1 UNK         0.0888 
     73 H73        29.0318   21.5041   -3.1254 H         1 UNK         0.0888 
     74 H74        28.5203   20.9621   -1.5254 H         1 UNK         0.0888 
     75 H75        30.4623   23.1938   -3.0300 H         1 UNK         0.3017 
     76 H76        31.7180   24.8517   -2.4320 H         1 UNK         0.0873 
     77 H77        32.1026   25.5639   -0.1127 H         1 UNK         0.0745 
     78 H78        30.6716   24.7327    0.4394 H         1 UNK         0.0745 
     79 H79        34.1537   24.3973    1.1243 H         1 UNK         0.0705 
     80 H80        34.0515   22.7433    1.6767 H         1 UNK         0.0705 
     81 H81        33.5222   25.9584    2.7615 H         1 UNK         0.1334 
     82 H82        30.3620   25.1635    5.5484 H         1 UNK         0.1417 
     83 H83        31.4721   22.2029    2.6484 H         1 UNK         0.1562 
     84 H84        29.7956   22.5007    5.7223 H         1 UNK         0.0748 
     85 H85        29.7497   21.6882    4.1798 H         1 UNK         0.0748 
     86 H86        27.4680   23.1752    1.9970 H         1 UNK         0.0940 
     87 H87        29.0831   23.7313    2.1899 H         1 UNK         0.0940 
     88 H88        27.9510   25.5495    1.2771 H         1 UNK         0.0703 
     89 H89        25.6433   24.6062    2.2968 H         1 UNK         0.3081 
     90 H90        23.7414   25.4397    1.5093 H         1 UNK         0.0719 
     91 H91        23.1894   26.7511    3.5732 H         1 UNK         0.0809 
     92 H92        22.0928   27.2020    2.2755 H         1 UNK         0.0809 
     93 H93        23.4276   28.2665    2.7118 H         1 UNK         0.0809 
     94 H94        24.6193   27.9201    0.1991 H         1 UNK         0.2990 
     95 H95        23.8776   26.4954   -2.9397 H         1 UNK         0.0690 
     96 H96        23.4890   28.8764   -3.4980 H         1 UNK         0.0788 
     97 H97        23.3151   29.2843   -1.7904 H         1 UNK         0.0788 
     98 H98        22.1300   28.2527   -2.5792 H         1 UNK         0.0788 
     99 H99        25.6793   28.5495   -2.2619 H         1 UNK         0.2993 
    100 H100       28.0600   27.7082   -2.8304 H         1 UNK         0.0949 
    101 H101       27.3358   29.1228   -0.8191 H         1 UNK         0.0767 
    102 H102       28.0173   27.8941    0.2417 H         1 UNK         0.0767 
    103 H103       29.0549   28.8003   -0.8472 H         1 UNK         0.0767 
    104 H104       28.3752   25.2942   -1.3099 H         1 UNK         0.3013 
    105 H105       26.9031   26.1810    4.5685 H         1 UNK         0.3121 
    106 H106       29.1826   27.3443    5.6794 H         1 UNK         0.0774 
    107 H107       27.5673   28.3322    7.3069 H         1 UNK         0.0815 
    108 H108       26.2292   27.9268    6.2410 H         1 UNK         0.0815 
    109 H109       27.1966   26.6486    6.9810 H         1 UNK         0.0815 
    110 H110       27.1967   28.7268    3.1724 H         1 UNK         0.2987 
    111 H111       27.8630   31.5124    3.7369 H         1 UNK         0.0949 
    112 H112       25.7450   30.8610    2.5719 H         1 UNK         0.0806 
    113 H113       26.7295   31.9224    1.5766 H         1 UNK         0.0806 
    114 H114       26.6809   30.2008    1.2334 H         1 UNK         0.0806 
    115 H115       29.6538   28.8820    2.3989 H         1 UNK         0.3010 
    116 H116       31.1660   30.3088    0.4156 H         1 UNK         0.0829 
    117 H117       30.9690   27.8228    0.4524 H         1 UNK         0.0813 
    118 H118       32.6548   28.3135    0.5153 H         1 UNK         0.0813 
    119 H119       31.8429   27.7599    1.9743 H         1 UNK         0.0813 
    120 H120       33.1244   31.3061    0.5369 H         1 UNK         0.3038 
    121 H121       33.6926   32.8820    2.7282 H         1 UNK         0.0769 
    122 H122       35.5040   32.1797    0.3548 H         1 UNK         0.0811 
    123 H123       35.7220   33.5598    1.4216 H         1 UNK         0.0811 
    124 H124       34.2983   33.4675    0.4012 H         1 UNK         0.0811 
    125 H125       34.9667   29.6856    2.1518 H         1 UNK         0.3204 
    126 H126       37.2841   29.7186    3.7750 H         1 UNK         0.0748 
    127 H127       36.9746   27.2337    3.7916 H         1 UNK         0.0771 
    128 H128       35.3523   27.4204    3.1433 H         1 UNK         0.0771 
    129 H129       36.7534   27.8882    2.1781 H         1 UNK         0.0771 
    130 H130       33.8934   29.7066    4.7135 H         1 UNK         0.2980 
    131 H131       34.5283   29.0271    7.5270 H         1 UNK         0.0545 
    132 H132       34.8677   31.8831    5.7768 H         1 UNK         0.3459 
    133 H133       34.4248   32.9682    7.0712 H         1 UNK         0.3459 
    134 H134       32.0397   29.0809    7.8426 H         1 UNK         0.0616 
    135 H135       31.8316   29.4342    6.1482 H         1 UNK         0.0616 
    136 H136       32.8900   27.6590    4.2327 H         1 UNK         0.0634 
    137 H137       31.1927   27.6598    4.6139 H         1 UNK         0.0634 
@<TRIPOS>BOND
     1    1    2 1    
     2    1   72 1    
     3    1   73 1    
     4    1   74 1    
     5    2    3 2    
     6    2    4 am   BACKBONE|DICT|INTERRES
     7    4    5 1    
     8    4   75 1    
     9    5    6 1    
    10    5   35 1    
    11    5   76 1    
    12    6    7 1    
    13    6   77 1    
    14    6   78 1    
    15    7    8 1    
    16    8    9 1    
    17    8   79 1    
    18    8   80 1    
    19    9   10 ar   
    20    9   14 ar   
    21   10   11 ar   
    22   10   81 1    
    23   11   12 ar   
    24   11   71 1    
    25   12   13 ar   
    26   12   82 1    
    27   13   14 ar   
    28   13   15 1    
    29   14   83 1    
    30   15   16 1    
    31   15   84 1    
    32   15   85 1    
    33   16   17 1    
    34   17   18 1    
    35   17   86 1    
    36   17   87 1    
    37   18   19 1    
    38   18   37 1    
    39   18   88 1    
    40   19   20 am   BACKBONE|DICT|INTERRES
    41   19   89 1    
    42   20   21 2    
    43   20   22 1    
    44   22   23 1    
    45   22   24 1    
    46   22   90 1    
    47   23   91 1    
    48   23   92 1    
    49   23   93 1    
    50   24   25 am   BACKBONE|DICT|INTERRES
    51   24   94 1    
    52   25   26 2    
    53   25   27 1    
    54   27   28 1    
    55   27   29 1    
    56   27   95 1    
    57   28   96 1    
    58   28   97 1    
    59   28   98 1    
    60   29   30 am   BACKBONE|DICT|INTERRES
    61   29   99 1    
    62   30   31 2    
    63   30   32 1    
    64   32   33 1    
    65   32   34 1    
    66   32  100 1    
    67   33  101 1    
    68   33  102 1    
    69   33  103 1    
    70   34   35 am   BACKBONE|DICT|INTERRES
    71   34  104 1    
    72   35   36 2    
    73   37   38 2    
    74   37   39 am   BACKBONE|DICT|INTERRES
    75   39   40 1    
    76   39  105 1    
    77   40   41 1    
    78   40   42 1    
    79   40  106 1    
    80   41  107 1    
    81   41  108 1    
    82   41  109 1    
    83   42   43 2    
    84   42   44 am   BACKBONE|DICT|INTERRES
    85   44   45 1    
    86   44  110 1    
    87   45   46 1    
    88   45   47 1    
    89   45  111 1    
    90   46  112 1    
    91   46  113 1    
    92   46  114 1    
    93   47   48 2    
    94   47   49 am   BACKBONE|DICT|INTERRES
    95   49   50 1    
    96   49  115 1    
    97   50   51 1    
    98   50   52 1    
    99   50  116 1    
   100   51  117 1    
   101   51  118 1    
   102   51  119 1    
   103   52   53 2    
   104   52   54 am   BACKBONE|DICT|INTERRES
   105   54   55 1    
   106   54  120 1    
   107   55   56 1    
   108   55   57 1    
   109   55  121 1    
   110   56  122 1    
   111   56  123 1    
   112   56  124 1    
   113   57   58 2    
   114   57   59 am   BACKBONE|DICT|INTERRES
   115   59   60 1    
   116   59  125 1    
   117   60   61 1    
   118   60   62 1    
   119   60  126 1    
   120   61  127 1    
   121   61  128 1    
   122   61  129 1    
   123   62   63 2    
   124   62   64 am   BACKBONE|DICT|INTERRES
   125   64   65 1    
   126   64  130 1    
   127   65   66 1    
   128   65   69 1    
   129   65  131 1    
   130   66   67 am   BACKBONE|DICT|INTERRES
   131   66   68 2    
   132   67  132 1    
   133   67  133 1    
   134   69   70 1    
   135   69  134 1    
   136   69  135 1    
   137   70   71 1    
   138   71  136 1    
   139   71  137 1    
@<TRIPOS>SUBSTRUCTURE
     1 UNK         1 GROUP             0       ****    0 ROOT    
