@<TRIPOS>MOLECULE
3R136
137   139    1
SMALL
USER_CHARGES


@<TRIPOS>ATOM
      1 CA         29.6731   22.4194    4.4165 C.3       0 UNK        -0.1979 
      2 C          28.9851   21.7917    3.2153 C.2       0 UNK         0.4864 
      3 O          27.8670   21.2913    3.3430 O.2       0 UNK        -0.5359 
      4 N          29.6468   21.8126    2.0495 N.am      1 UNK        -0.4318 
      5 CA         29.1437   21.2552    0.7829 C.3       1 UNK         0.0824 
      6 C6         30.2634   21.1208   -0.2773 C.3       12 UNK        -0.0944 
      7 S7         31.6577   20.1210    0.3482 S.3       12 UNK        -0.2672 
      8 C8         33.1095   21.1001   -0.1563 C.3       12 UNK         0.0333 
      9 C9         33.1624   22.4987    0.4528 C.ar      12 UNK        -0.0807 
     10 C10        33.1301   22.6852    1.8415 C.ar      12 UNK        -0.0894 
     11 C11        33.2488   23.9695    2.3857 C.ar      12 UNK        -0.0804 
     12 C12        33.4350   25.0600    1.5331 C.ar      12 UNK        -0.0824 
     13 C13        33.4306   24.8950    0.1478 C.ar      12 UNK        -0.0762 
     14 C14        33.2949   23.6110   -0.3868 C.ar      12 UNK        -0.0782 
     15 C15        33.5911   26.1013   -0.7670 C.3       12 UNK         0.0230 
     16 S16        31.9843   26.7799   -1.2963 S.3       12 UNK        -0.2608 
     17 C17        31.4268   27.6778    0.1948 C.3       12 UNK        -0.0989 
     18 CA         29.8972   27.5652    0.4189 C.3       5 UNK         0.0716 
     19 N          29.5062   27.6229    1.8320 N.am      5 UNK        -0.4135 
     20 C          29.5605   28.6810    2.6560 C.2       4 UNK         0.5031 
     21 O          30.0786   29.7622    2.3654 O.2       4 UNK        -0.5229 
     22 CA         28.8812   28.5055    4.0326 C.3       4 UNK         0.0329 
     23 CB         28.5627   29.8508    4.7147 C.3       4 UNK        -0.2001 
     24 N          27.6805   27.6594    3.9854 N.am      4 UNK        -0.4303 
     25 C          26.5938   27.8369    3.2193 C.2       3 UNK         0.5044 
     26 O          26.4192   28.8025    2.4750 O.2       3 UNK        -0.5152 
     27 CA         25.5717   26.6864    3.2132 C.3       3 UNK         0.0319 
     28 CB         24.1313   27.2254    3.2523 C.3       3 UNK        -0.2001 
     29 N          25.7218   25.8061    2.0454 N.am      3 UNK        -0.4354 
     30 C          26.8415   25.1639    1.6845 C.2       2 UNK         0.4964 
     31 O          27.9242   25.2811    2.2692 O.2       2 UNK        -0.5047 
     32 CA         26.7569   24.2427    0.4607 C.3       2 UNK         0.0288 
     33 CB         26.8167   25.0301   -0.8599 C.3       2 UNK        -0.2113 
     34 N          27.8983   23.3451    0.5596 N.am      2 UNK        -0.4145 
     35 C          27.9440   22.0531    0.2261 C.2       1 UNK         0.5006 
     36 O          27.0820   21.4834   -0.4456 O.2       1 UNK        -0.5103 
     37 C          29.0566   28.5340   -0.4446 C.2       5 UNK         0.5055 
     38 O          29.6057   29.3103   -1.2270 O.2       5 UNK        -0.5220 
     39 N          27.7280   28.4678   -0.2640 N.am      6 UNK        -0.4450 
     40 CA         26.6970   29.2865   -0.9117 C.3       6 UNK         0.0367 
     41 CB         26.6634   29.0464   -2.4365 C.3       6 UNK        -0.1929 
     42 C          26.8199   30.7715   -0.5242 C.2       6 UNK         0.5070 
     43 O          26.9106   31.6394   -1.3942 O.2       6 UNK        -0.5237 
     44 N          26.8173   31.0183    0.7938 N.am      7 UNK        -0.4739 
     45 CA         26.8905   32.3237    1.4608 C.3       7 UNK         0.0276 
     46 CB         25.6317   33.1654    1.1597 C.3       7 UNK        -0.1927 
     47 C          28.2026   33.0889    1.1943 C.2       7 UNK         0.5013 
     48 O          28.1974   34.3208    1.1640 O.2       7 UNK        -0.5193 
     49 N          29.3129   32.3537    1.0431 N.am      8 UNK        -0.4253 
     50 CA         30.6616   32.9068    0.8796 C.3       8 UNK         0.0242 
     51 CB         31.4971   31.9351    0.0302 C.3       8 UNK        -0.2000 
     52 C          31.3606   33.1830    2.2250 C.2       8 UNK         0.4948 
     53 O          32.4859   33.6833    2.2172 O.2       8 UNK        -0.5275 
     54 N          30.7026   32.8338    3.3428 N.am      9 UNK        -0.4246 
     55 CA         31.1910   32.8857    4.7279 C.3       9 UNK         0.0261 
     56 CB         31.5240   34.3310    5.1583 C.3       9 UNK        -0.1959 
     57 C          32.3422   31.8936    4.9946 C.2       9 UNK         0.5033 
     58 O          33.1805   32.1453    5.8631 O.2       9 UNK        -0.5390 
     59 N          32.3578   30.7808    4.2492 N.am      10 UNK        -0.4215 
     60 CA         33.3157   29.6865    4.3952 C.3       10 UNK         0.0240 
     61 CB         33.5120   29.0396    3.0141 C.3       10 UNK        -0.1982 
     62 C          32.8305   28.6526    5.4288 C.2       10 UNK         0.4970 
     63 O          31.7522   28.8045    6.0070 O.2       10 UNK        -0.4916 
     64 N          33.6408   27.6034    5.6157 N.am      11 UNK        -0.4279 
     65 CA         33.3798   26.4319    6.4743 C.3       11 UNK         0.1003 
     66 C          33.4678   26.7080    8.0062 C.2       11 UNK         0.5709 
     67 N          33.9725   27.8544    8.4466 N.am      11 UNK        -0.7358 
     68 O          33.1065   25.8551    8.8140 O.2       11 UNK        -0.4999 
     69 C69        32.0956   25.6286    6.0931 C.3       12 UNK        -0.0954 
     70 S70        31.8407   25.3617    4.3059 S.3       12 UNK        -0.2268 
     71 C71        33.1860   24.2035    3.8888 C.3       12 UNK         0.0203 
     72 H72        29.3079   23.4350    4.5689 H         1 UNK         0.0888 
     73 H73        29.4686   21.8421    5.3177 H         1 UNK         0.0888 
     74 H74        30.7528   22.4570    4.2818 H         1 UNK         0.0888 
     75 H75        30.5714   22.2177    2.0059 H         1 UNK         0.3017 
     76 H76        28.7715   20.2513    0.9997 H         1 UNK         0.0873 
     77 H77        30.6183   22.1053   -0.5872 H         1 UNK         0.0745 
     78 H78        29.8811   20.6368   -1.1781 H         1 UNK         0.0745 
     79 H79        33.1284   21.1491   -1.2463 H         1 UNK         0.0705 
     80 H80        34.0103   20.5602    0.1382 H         1 UNK         0.0705 
     81 H81        33.0236   21.8291    2.4940 H         1 UNK         0.1334 
     82 H82        33.5611   26.0452    1.9587 H         1 UNK         0.1417 
     83 H83        33.3118   23.4793   -1.4604 H         1 UNK         0.1562 
     84 H84        34.1579   25.8140   -1.6539 H         1 UNK         0.0748 
     85 H85        34.1743   26.8827   -0.2768 H         1 UNK         0.0748 
     86 H86        31.7611   28.7146    0.1527 H         1 UNK         0.0940 
     87 H87        31.9298   27.2383    1.0495 H         1 UNK         0.0940 
     88 H88        29.6029   26.5620    0.1082 H         1 UNK         0.0703 
     89 H89        29.0505   26.7823    2.1810 H         1 UNK         0.3081 
     90 H90        29.6004   27.9749    4.6576 H         1 UNK         0.0719 
     91 H91        28.0651   29.7011    5.6726 H         1 UNK         0.0809 
     92 H92        27.9208   30.4783    4.0967 H         1 UNK         0.0809 
     93 H93        29.4780   30.4044    4.9157 H         1 UNK         0.0809 
     94 H94        27.7436   26.7962    4.5080 H         1 UNK         0.2990 
     95 H95        25.7273   26.0805    4.1083 H         1 UNK         0.0690 
     96 H96        23.4062   26.4169    3.3477 H         1 UNK         0.0788 
     97 H97        23.8860   27.7925    2.3531 H         1 UNK         0.0788 
     98 H98        23.9867   27.8904    4.1050 H         1 UNK         0.0788 
     99 H99        24.8890   25.6654    1.4914 H         1 UNK         0.2993 
    100 H100       25.8283   23.6702    0.5171 H         1 UNK         0.0949 
    101 H101       27.7557   25.5711   -0.9704 H         1 UNK         0.0767 
    102 H102       26.7211   24.3619   -1.7160 H         1 UNK         0.0767 
    103 H103       26.0061   25.7569   -0.9263 H         1 UNK         0.0767 
    104 H104       28.6233   23.7024    1.1709 H         1 UNK         0.3013 
    105 H105       27.3871   27.8686    0.4739 H         1 UNK         0.3121 
    106 H106       25.7412   28.9462   -0.5097 H         1 UNK         0.0774 
    107 H107       25.8226   29.5703   -2.8923 H         1 UNK         0.0815 
    108 H108       27.5692   29.4037   -2.9270 H         1 UNK         0.0815 
    109 H109       26.5508   27.9876   -2.6691 H         1 UNK         0.0815 
    110 H110       26.7234   30.2163    1.4188 H         1 UNK         0.2987 
    111 H111       26.8854   32.1109    2.5306 H         1 UNK         0.0949 
    112 H112       25.5935   33.4784    0.1159 H         1 UNK         0.0806 
    113 H113       24.7205   32.6082    1.3771 H         1 UNK         0.0806 
    114 H114       25.6090   34.0693    1.7698 H         1 UNK         0.0806 
    115 H115       29.2502   31.3440    1.1126 H         1 UNK         0.3010 
    116 H116       30.5997   33.8561    0.3433 H         1 UNK         0.0829 
    117 H117       31.0133   31.7216   -0.9232 H         1 UNK         0.0813 
    118 H118       32.4803   32.3521   -0.1912 H         1 UNK         0.0813 
    119 H119       31.6546   30.9889    0.5465 H         1 UNK         0.0813 
    120 H120       29.7963   32.4075    3.2151 H         1 UNK         0.3038 
    121 H121       30.3617   32.5530    5.3528 H         1 UNK         0.0769 
    122 H122       32.4093   34.7138    4.6502 H         1 UNK         0.0811 
    123 H123       30.6964   35.0087    4.9491 H         1 UNK         0.0811 
    124 H124       31.7207   34.3828    6.2298 H         1 UNK         0.0811 
    125 H125       31.6044   30.6285    3.5877 H         1 UNK         0.3204 
    126 H126       34.2744   30.0853    4.7335 H         1 UNK         0.0748 
    127 H127       34.3213   28.3090    3.0203 H         1 UNK         0.0771 
    128 H128       32.6065   28.5252    2.7008 H         1 UNK         0.0771 
    129 H129       33.7563   29.7827    2.2543 H         1 UNK         0.0771 
    130 H130       34.5179   27.5787    5.1171 H         1 UNK         0.2980 
    131 H131       34.2251   25.7702    6.2868 H         1 UNK         0.0545 
    132 H132       34.2766   28.5623    7.7982 H         1 UNK         0.3459 
    133 H133       34.0357   28.0164    9.4393 H         1 UNK         0.3459 
    134 H134       32.1005   24.6522    6.5808 H         1 UNK         0.0616 
    135 H135       31.2096   26.1444    6.4670 H         1 UNK         0.0616 
    136 H136       33.0415   23.2674    4.4296 H         1 UNK         0.0634 
    137 H137       34.1406   24.6147    4.2174 H         1 UNK         0.0634 
@<TRIPOS>BOND
     1    1    2 1    
     2    1   72 1    
     3    1   73 1    
     4    1   74 1    
     5    2    3 2    
     6    2    4 am   BACKBONE|DICT|INTERRES
     7    4    5 1    
     8    4   75 1    
     9    5    6 1    
    10    5   35 1    
    11    5   76 1    
    12    6    7 1    
    13    6   77 1    
    14    6   78 1    
    15    7    8 1    
    16    8    9 1    
    17    8   79 1    
    18    8   80 1    
    19    9   10 ar   
    20    9   14 ar   
    21   10   11 ar   
    22   10   81 1    
    23   11   12 ar   
    24   11   71 1    
    25   12   13 ar   
    26   12   82 1    
    27   13   14 ar   
    28   13   15 1    
    29   14   83 1    
    30   15   16 1    
    31   15   84 1    
    32   15   85 1    
    33   16   17 1    
    34   17   18 1    
    35   17   86 1    
    36   17   87 1    
    37   18   19 1    
    38   18   37 1    
    39   18   88 1    
    40   19   20 am   BACKBONE|DICT|INTERRES
    41   19   89 1    
    42   20   21 2    
    43   20   22 1    
    44   22   23 1    
    45   22   24 1    
    46   22   90 1    
    47   23   91 1    
    48   23   92 1    
    49   23   93 1    
    50   24   25 am   BACKBONE|DICT|INTERRES
    51   24   94 1    
    52   25   26 2    
    53   25   27 1    
    54   27   28 1    
    55   27   29 1    
    56   27   95 1    
    57   28   96 1    
    58   28   97 1    
    59   28   98 1    
    60   29   30 am   BACKBONE|DICT|INTERRES
    61   29   99 1    
    62   30   31 2    
    63   30   32 1    
    64   32   33 1    
    65   32   34 1    
    66   32  100 1    
    67   33  101 1    
    68   33  102 1    
    69   33  103 1    
    70   34   35 am   BACKBONE|DICT|INTERRES
    71   34  104 1    
    72   35   36 2    
    73   37   38 2    
    74   37   39 am   BACKBONE|DICT|INTERRES
    75   39   40 1    
    76   39  105 1    
    77   40   41 1    
    78   40   42 1    
    79   40  106 1    
    80   41  107 1    
    81   41  108 1    
    82   41  109 1    
    83   42   43 2    
    84   42   44 am   BACKBONE|DICT|INTERRES
    85   44   45 1    
    86   44  110 1    
    87   45   46 1    
    88   45   47 1    
    89   45  111 1    
    90   46  112 1    
    91   46  113 1    
    92   46  114 1    
    93   47   48 2    
    94   47   49 am   BACKBONE|DICT|INTERRES
    95   49   50 1    
    96   49  115 1    
    97   50   51 1    
    98   50   52 1    
    99   50  116 1    
   100   51  117 1    
   101   51  118 1    
   102   51  119 1    
   103   52   53 2    
   104   52   54 am   BACKBONE|DICT|INTERRES
   105   54   55 1    
   106   54  120 1    
   107   55   56 1    
   108   55   57 1    
   109   55  121 1    
   110   56  122 1    
   111   56  123 1    
   112   56  124 1    
   113   57   58 2    
   114   57   59 am   BACKBONE|DICT|INTERRES
   115   59   60 1    
   116   59  125 1    
   117   60   61 1    
   118   60   62 1    
   119   60  126 1    
   120   61  127 1    
   121   61  128 1    
   122   61  129 1    
   123   62   63 2    
   124   62   64 am   BACKBONE|DICT|INTERRES
   125   64   65 1    
   126   64  130 1    
   127   65   66 1    
   128   65   69 1    
   129   65  131 1    
   130   66   67 am   BACKBONE|DICT|INTERRES
   131   66   68 2    
   132   67  132 1    
   133   67  133 1    
   134   69   70 1    
   135   69  134 1    
   136   69  135 1    
   137   70   71 1    
   138   71  136 1    
   139   71  137 1    
@<TRIPOS>SUBSTRUCTURE
     1 UNK         1 GROUP             0       ****    0 ROOT    
