@<TRIPOS>MOLECULE
3R136
137   139    1
SMALL
USER_CHARGES


@<TRIPOS>ATOM
      1 CA         28.4324   18.6923    3.2093 C.3       0 UNK        -0.1979 
      2 C          28.5270   18.8578    1.6994 C.2       0 UNK         0.4864 
      3 O          28.1410   17.9508    0.9595 O.2       0 UNK        -0.5359 
      4 N          29.0447   20.0038    1.2411 N.am      1 UNK        -0.4318 
      5 CA         29.1431   20.3770   -0.1728 C.3       1 UNK         0.0824 
      6 C6         30.3626   21.3033   -0.4265 C.3       12 UNK        -0.0944 
      7 S7         30.2627   22.9216    0.4131 S.3       12 UNK        -0.2672 
      8 C8         31.7081   22.8551    1.5115 C.3       12 UNK         0.0333 
      9 C9         31.8878   24.1758    2.2424 C.ar      12 UNK        -0.0807 
     10 C10        32.4405   25.2698    1.5714 C.ar      12 UNK        -0.0894 
     11 C11        32.6049   26.4937    2.2240 C.ar      12 UNK        -0.0804 
     12 C12        32.2365   26.6109    3.5673 C.ar      12 UNK        -0.0824 
     13 C13        31.6829   25.5244    4.2531 C.ar      12 UNK        -0.0762 
     14 C14        31.5064   24.3093    3.5816 C.ar      12 UNK        -0.0782 
     15 C15        31.3196   25.6409    5.7298 C.3       12 UNK         0.0230 
     16 S16        30.2677   27.0795    6.1156 S.3       12 UNK        -0.2608 
     17 C17        28.6734   26.6369    5.3382 C.3       12 UNK        -0.0989 
     18 CA         28.1630   27.7391    4.3722 C.3       5 UNK         0.0716 
     19 N          27.1123   27.2308    3.4854 N.am      5 UNK        -0.4135 
     20 C          26.7785   27.7709    2.3074 C.2       4 UNK         0.5031 
     21 O          27.3244   28.7699    1.8305 O.2       4 UNK        -0.5229 
     22 CA         25.6396   27.1061    1.5253 C.3       4 UNK         0.0329 
     23 CB         24.4519   28.0701    1.3697 C.3       4 UNK        -0.2001 
     24 N          26.1317   26.7213    0.2043 N.am      4 UNK        -0.4303 
     25 C          26.8708   25.6297   -0.0234 C.2       3 UNK         0.5044 
     26 O          27.1137   24.7767    0.8329 O.2       3 UNK        -0.5152 
     27 CA         27.4715   25.4963   -1.4312 C.3       3 UNK         0.0319 
     28 CB         28.8937   26.0826   -1.4623 C.3       3 UNK        -0.2001 
     29 N          27.5092   24.0963   -1.8584 N.am      3 UNK        -0.4354 
     30 C          26.4403   23.4139   -2.2956 C.2       2 UNK         0.4964 
     31 O          25.3254   23.9178   -2.4406 O.2       2 UNK        -0.5047 
     32 CA         26.6344   21.9281   -2.6580 C.3       2 UNK         0.0288 
     33 CB         26.7882   21.7640   -4.1795 C.3       2 UNK        -0.2113 
     34 N          27.7774   21.2967   -1.9919 N.am      2 UNK        -0.4145 
     35 C          27.8137   20.9765   -0.6905 C.2       1 UNK         0.5006 
     36 O          26.8603   21.1476    0.0753 O.2       1 UNK        -0.5103 
     37 C          27.6943   29.0280    5.0886 C.2       5 UNK         0.5055 
     38 O          27.4394   29.0176    6.2946 O.2       5 UNK        -0.5220 
     39 N          27.5674   30.1168    4.3180 N.am      6 UNK        -0.4450 
     40 CA         27.2895   31.4728    4.8023 C.3       6 UNK         0.0367 
     41 CB         26.9700   32.3797    3.6032 C.3       6 UNK        -0.1929 
     42 C          28.4590   32.0496    5.6215 C.2       6 UNK         0.5070 
     43 O          28.2350   32.8275    6.5491 O.2       6 UNK        -0.5237 
     44 N          29.6769   31.6255    5.2764 N.am      7 UNK        -0.4739 
     45 CA         30.9269   31.8481    5.9855 C.3       7 UNK         0.0276 
     46 CB         31.5066   33.2246    5.6180 C.3       7 UNK        -0.1927 
     47 C          31.8709   30.7110    5.5774 C.2       7 UNK         0.5013 
     48 O          31.6444   30.0775    4.5427 O.2       7 UNK        -0.5193 
     49 N          32.9185   30.4823    6.3800 N.am      8 UNK        -0.4253 
     50 CA         33.9108   29.4216    6.1645 C.3       8 UNK         0.0242 
     51 CB         34.8327   29.3290    7.3911 C.3       8 UNK        -0.2000 
     52 C          34.7411   29.5888    4.8776 C.2       8 UNK         0.4948 
     53 O          35.1768   28.5854    4.3132 O.2       8 UNK        -0.5275 
     54 N          34.9395   30.8410    4.4451 N.am      9 UNK        -0.4246 
     55 CA         35.5921   31.1962    3.1855 C.3       9 UNK         0.0261 
     56 CB         36.6289   32.3081    3.4286 C.3       9 UNK        -0.1959 
     57 C          34.5447   31.6196    2.1467 C.2       9 UNK         0.5033 
     58 O          34.4333   30.9807    1.1003 O.2       9 UNK        -0.5390 
     59 N          33.7861   32.6827    2.4495 N.am      10 UNK        -0.4215 
     60 CA         32.7836   33.2837    1.5641 C.3       10 UNK         0.0240 
     61 CB         32.6463   34.7803    1.9064 C.3       10 UNK        -0.1982 
     62 C          31.4348   32.5366    1.5935 C.2       10 UNK         0.4970 
     63 O          30.4000   33.1429    1.8769 O.2       10 UNK        -0.4916 
     64 N          31.4702   31.2339    1.3005 N.am      11 UNK        -0.4279 
     65 CA         30.2883   30.3869    1.0959 C.3       11 UNK         0.1003 
     66 C          29.5383   30.6901   -0.2329 C.2       11 UNK         0.5709 
     67 N          28.2980   30.2386   -0.3538 N.am      11 UNK        -0.7358 
     68 O          30.0652   31.3116   -1.1551 O.2       11 UNK        -0.4999 
     69 C69        30.6285   28.8833    1.2567 C.3       12 UNK        -0.0954 
     70 S70        32.0063   28.2991    0.2103 S.3       12 UNK        -0.2268 
     71 C71        33.1700   27.6906    1.4719 C.3       12 UNK         0.0203 
     72 H72        28.8239   19.5601    3.7399 H         1 UNK         0.0888 
     73 H73        27.3932   18.5540    3.5065 H         1 UNK         0.0888 
     74 H74        28.9981   17.8170    3.5274 H         1 UNK         0.0888 
     75 H75        29.2967   20.7331    1.8923 H         1 UNK         0.3017 
     76 H76        29.3103   19.4656   -0.7514 H         1 UNK         0.0873 
     77 H77        31.2732   20.7895   -0.1140 H         1 UNK         0.0745 
     78 H78        30.4961   21.4848   -1.4941 H         1 UNK         0.0745 
     79 H79        32.6024   22.6388    0.9249 H         1 UNK         0.0705 
     80 H80        31.5913   22.0325    2.2187 H         1 UNK         0.0705 
     81 H81        32.7233   25.1752    0.5317 H         1 UNK         0.1334 
     82 H82        32.3715   27.5545    4.0775 H         1 UNK         0.1417 
     83 H83        31.0823   23.4621    4.1034 H         1 UNK         0.1562 
     84 H84        32.2430   25.7260    6.3041 H         1 UNK         0.0748 
     85 H85        30.8216   24.7371    6.0844 H         1 UNK         0.0748 
     86 H86        27.9416   26.4199    6.1186 H         1 UNK         0.0940 
     87 H87        28.8072   25.7037    4.7886 H         1 UNK         0.0940 
     88 H88        29.0094   28.0189    3.7406 H         1 UNK         0.0703 
     89 H89        26.6005   26.4250    3.8143 H         1 UNK         0.3081 
     90 H90        25.2944   26.2174    2.0586 H         1 UNK         0.0719 
     91 H91        24.7337   28.9813    0.8398 H         1 UNK         0.0809 
     92 H92        23.6325   27.6041    0.8222 H         1 UNK         0.0809 
     93 H93        24.0623   28.3683    2.3440 H         1 UNK         0.0809 
     94 H94        26.0123   27.3973   -0.5362 H         1 UNK         0.2990 
     95 H95        26.8546   26.0579   -2.1364 H         1 UNK         0.0690 
     96 H96        29.5524   25.5907   -0.7455 H         1 UNK         0.0788 
     97 H97        28.8835   27.1442   -1.2107 H         1 UNK         0.0788 
     98 H98        29.3429   25.9894   -2.4511 H         1 UNK         0.0788 
     99 H99        28.3733   23.5991   -1.7008 H         1 UNK         0.2993 
    100 H100       25.7280   21.4017   -2.3498 H         1 UNK         0.0949 
    101 H101       27.6860   22.2598   -4.5511 H         1 UNK         0.0767 
    102 H102       26.8419   20.7124   -4.4625 H         1 UNK         0.0767 
    103 H103       25.9361   22.1956   -4.7069 H         1 UNK         0.0767 
    104 H104       28.5896   21.1174   -2.5647 H         1 UNK         0.3013 
    105 H105       27.6805   29.9914    3.3166 H         1 UNK         0.3121 
    106 H106       26.4127   31.4310    5.4518 H         1 UNK         0.0774 
    107 H107       26.7299   33.3911    3.9339 H         1 UNK         0.0815 
    108 H108       27.8142   32.4543    2.9161 H         1 UNK         0.0815 
    109 H109       26.1118   32.0097    3.0419 H         1 UNK         0.0815 
    110 H110       29.7705   30.9580    4.5198 H         1 UNK         0.2987 
    111 H111       30.7467   31.7893    7.0611 H         1 UNK         0.0949 
    112 H112       31.6800   33.3071    4.5461 H         1 UNK         0.0806 
    113 H113       30.8301   34.0292    5.9067 H         1 UNK         0.0806 
    114 H114       32.4558   33.4044    6.1238 H         1 UNK         0.0806 
    115 H115       33.0307   31.0455    7.2112 H         1 UNK         0.3010 
    116 H116       33.3677   28.4779    6.0784 H         1 UNK         0.0829 
    117 H117       35.5647   28.5292    7.2685 H         1 UNK         0.0813 
    118 H118       35.3863   30.2548    7.5528 H         1 UNK         0.0813 
    119 H119       34.2677   29.1105    8.2975 H         1 UNK         0.0813 
    120 H120       34.5419   31.5913    4.9895 H         1 UNK         0.3038 
    121 H121       36.1252   30.3340    2.7785 H         1 UNK         0.0769 
    122 H122       37.0987   32.6142    2.4928 H         1 UNK         0.0811 
    123 H123       37.4243   31.9623    4.0891 H         1 UNK         0.0811 
    124 H124       36.1885   33.1976    3.8798 H         1 UNK         0.0811 
    125 H125       33.9326   33.1472    3.3321 H         1 UNK         0.3204 
    126 H126       33.1480   33.2229    0.5361 H         1 UNK         0.0748 
    127 H127       31.9467   35.2725    1.2293 H         1 UNK         0.0771 
    128 H128       32.2801   34.9375    2.9211 H         1 UNK         0.0771 
    129 H129       33.6009   35.2980    1.8105 H         1 UNK         0.0771 
    130 H130       32.3649   30.8161    1.0700 H         1 UNK         0.2980 
    131 H131       29.5872   30.6350    1.8952 H         1 UNK         0.0545 
    132 H132       27.8681   29.7127    0.4051 H         1 UNK         0.3459 
    133 H133       27.7858   30.4189   -1.2015 H         1 UNK         0.3459 
    134 H134       30.8696   28.7004    2.3030 H         1 UNK         0.0616 
    135 H135       29.7622   28.2546    1.0491 H         1 UNK         0.0616 
    136 H136       33.4097   28.5055    2.1567 H         1 UNK         0.0634 
    137 H137       34.1056   27.4077    0.9882 H         1 UNK         0.0634 
@<TRIPOS>BOND
     1    1    2 1    
     2    1   72 1    
     3    1   73 1    
     4    1   74 1    
     5    2    3 2    
     6    2    4 am   BACKBONE|DICT|INTERRES
     7    4    5 1    
     8    4   75 1    
     9    5    6 1    
    10    5   35 1    
    11    5   76 1    
    12    6    7 1    
    13    6   77 1    
    14    6   78 1    
    15    7    8 1    
    16    8    9 1    
    17    8   79 1    
    18    8   80 1    
    19    9   10 ar   
    20    9   14 ar   
    21   10   11 ar   
    22   10   81 1    
    23   11   12 ar   
    24   11   71 1    
    25   12   13 ar   
    26   12   82 1    
    27   13   14 ar   
    28   13   15 1    
    29   14   83 1    
    30   15   16 1    
    31   15   84 1    
    32   15   85 1    
    33   16   17 1    
    34   17   18 1    
    35   17   86 1    
    36   17   87 1    
    37   18   19 1    
    38   18   37 1    
    39   18   88 1    
    40   19   20 am   BACKBONE|DICT|INTERRES
    41   19   89 1    
    42   20   21 2    
    43   20   22 1    
    44   22   23 1    
    45   22   24 1    
    46   22   90 1    
    47   23   91 1    
    48   23   92 1    
    49   23   93 1    
    50   24   25 am   BACKBONE|DICT|INTERRES
    51   24   94 1    
    52   25   26 2    
    53   25   27 1    
    54   27   28 1    
    55   27   29 1    
    56   27   95 1    
    57   28   96 1    
    58   28   97 1    
    59   28   98 1    
    60   29   30 am   BACKBONE|DICT|INTERRES
    61   29   99 1    
    62   30   31 2    
    63   30   32 1    
    64   32   33 1    
    65   32   34 1    
    66   32  100 1    
    67   33  101 1    
    68   33  102 1    
    69   33  103 1    
    70   34   35 am   BACKBONE|DICT|INTERRES
    71   34  104 1    
    72   35   36 2    
    73   37   38 2    
    74   37   39 am   BACKBONE|DICT|INTERRES
    75   39   40 1    
    76   39  105 1    
    77   40   41 1    
    78   40   42 1    
    79   40  106 1    
    80   41  107 1    
    81   41  108 1    
    82   41  109 1    
    83   42   43 2    
    84   42   44 am   BACKBONE|DICT|INTERRES
    85   44   45 1    
    86   44  110 1    
    87   45   46 1    
    88   45   47 1    
    89   45  111 1    
    90   46  112 1    
    91   46  113 1    
    92   46  114 1    
    93   47   48 2    
    94   47   49 am   BACKBONE|DICT|INTERRES
    95   49   50 1    
    96   49  115 1    
    97   50   51 1    
    98   50   52 1    
    99   50  116 1    
   100   51  117 1    
   101   51  118 1    
   102   51  119 1    
   103   52   53 2    
   104   52   54 am   BACKBONE|DICT|INTERRES
   105   54   55 1    
   106   54  120 1    
   107   55   56 1    
   108   55   57 1    
   109   55  121 1    
   110   56  122 1    
   111   56  123 1    
   112   56  124 1    
   113   57   58 2    
   114   57   59 am   BACKBONE|DICT|INTERRES
   115   59   60 1    
   116   59  125 1    
   117   60   61 1    
   118   60   62 1    
   119   60  126 1    
   120   61  127 1    
   121   61  128 1    
   122   61  129 1    
   123   62   63 2    
   124   62   64 am   BACKBONE|DICT|INTERRES
   125   64   65 1    
   126   64  130 1    
   127   65   66 1    
   128   65   69 1    
   129   65  131 1    
   130   66   67 am   BACKBONE|DICT|INTERRES
   131   66   68 2    
   132   67  132 1    
   133   67  133 1    
   134   69   70 1    
   135   69  134 1    
   136   69  135 1    
   137   70   71 1    
   138   71  136 1    
   139   71  137 1    
@<TRIPOS>SUBSTRUCTURE
     1 UNK         1 GROUP             0       ****    0 ROOT    
