@<TRIPOS>MOLECULE
3R136
137   139    1
SMALL
USER_CHARGES


@<TRIPOS>ATOM
      1 CA         27.8741   21.4305    0.8177 C.3       0 UNK        -0.1979 
      2 C          28.7463   22.4240    0.0655 C.2       0 UNK         0.4864 
      3 O          28.8720   22.3244   -1.1560 O.2       0 UNK        -0.5359 
      4 N          29.3383   23.3876    0.7843 N.am      1 UNK        -0.4318 
      5 CA         30.1832   24.4670    0.2618 C.3       1 UNK         0.0824 
      6 C6         30.8128   25.2974    1.4084 C.3       12 UNK        -0.0944 
      7 S7         32.2161   24.4290    2.1904 S.3       12 UNK        -0.2672 
      8 C8         31.4456   23.3654    3.4526 C.3       12 UNK         0.0333 
      9 C9         30.7469   24.1575    4.5471 C.ar      12 UNK        -0.0807 
     10 C10        31.4919   24.7310    5.5826 C.ar      12 UNK        -0.0894 
     11 C11        30.8533   25.4237    6.6155 C.ar      12 UNK        -0.0804 
     12 C12        29.4602   25.5452    6.6028 C.ar      12 UNK        -0.0824 
     13 C13        28.7049   24.9734    5.5738 C.ar      12 UNK        -0.0762 
     14 C14        29.3536   24.2804    4.5497 C.ar      12 UNK        -0.0782 
     15 C15        27.1876   25.0823    5.5877 C.3       12 UNK         0.0230 
     16 S16        26.6534   26.7637    5.1510 S.3       12 UNK        -0.2608 
     17 C17        25.6828   26.5284    3.6178 C.3       12 UNK        -0.0989 
     18 CA         26.4737   26.8160    2.3067 C.3       5 UNK         0.0716 
     19 N          25.7408   26.4821    1.0787 N.am      5 UNK        -0.4135 
     20 C          24.5444   26.9638    0.7056 C.2       4 UNK         0.5031 
     21 O          23.8358   27.6715    1.4221 O.2       4 UNK        -0.5229 
     22 CA         24.0368   26.6417   -0.7130 C.3       4 UNK         0.0329 
     23 CB         23.9222   27.9319   -1.5438 C.3       4 UNK        -0.2001 
     24 N          24.8569   25.6906   -1.4625 N.am      4 UNK        -0.4303 
     25 C          24.8780   24.3626   -1.3100 C.2       3 UNK         0.5044 
     26 O          24.2465   23.7672   -0.4375 O.2       3 UNK        -0.5152 
     27 CA         25.7527   23.5579   -2.2932 C.3       3 UNK         0.0319 
     28 CB         24.9885   23.2610   -3.5977 C.3       3 UNK        -0.2001 
     29 N          27.0748   24.1454   -2.5632 N.am      3 UNK        -0.4354 
     30 C          27.3856   25.3091   -3.1600 C.2       2 UNK         0.4964 
     31 O          26.5483   26.0570   -3.6679 O.2       2 UNK        -0.5047 
     32 CA         28.8696   25.7356   -3.1422 C.3       2 UNK         0.0288 
     33 CB         29.0365   27.2679   -3.2068 C.3       2 UNK        -0.2113 
     34 N          29.6199   25.1799   -2.0073 N.am      2 UNK        -0.4145 
     35 C          29.3672   25.3512   -0.6997 C.2       1 UNK         0.5006 
     36 O          28.4960   26.0980   -0.2453 O.2       1 UNK        -0.5103 
     37 C          27.0299   28.2506    2.1876 C.2       5 UNK         0.5055 
     38 O          26.6387   29.1518    2.9329 O.2       5 UNK        -0.5220 
     39 N          27.9580   28.4384    1.2409 N.am      6 UNK        -0.4450 
     40 CA         28.7342   29.6673    1.0561 C.3       6 UNK         0.0367 
     41 CB         29.2257   29.7399   -0.4002 C.3       6 UNK        -0.1929 
     42 C          29.8889   29.7491    2.0739 C.2       6 UNK         0.5070 
     43 O          31.0491   29.8789    1.6830 O.2       6 UNK        -0.5237 
     44 N          29.5493   29.6600    3.3679 N.am      7 UNK        -0.4739 
     45 CA         30.4697   29.6009    4.5089 C.3       7 UNK         0.0276 
     46 CB         29.6569   29.5313    5.8109 C.3       7 UNK        -0.1927 
     47 C          31.4776   30.7591    4.5588 C.2       7 UNK         0.5013 
     48 O          32.6564   30.5272    4.8246 O.2       7 UNK        -0.5193 
     49 N          31.0150   31.9720    4.2265 N.am      8 UNK        -0.4253 
     50 CA         31.8269   33.1903    4.1398 C.3       8 UNK         0.0242 
     51 CB         30.9000   34.3932    3.8997 C.3       8 UNK        -0.2000 
     52 C          32.9361   33.1457    3.0694 C.2       8 UNK         0.4948 
     53 O          33.9000   33.9038    3.1823 O.2       8 UNK        -0.5275 
     54 N          32.7933   32.2687    2.0663 N.am      9 UNK        -0.4246 
     55 CA         33.7778   32.0278    1.0105 C.3       9 UNK         0.0261 
     56 CB         33.0434   32.0075   -0.3426 C.3       9 UNK        -0.1959 
     57 C          34.5549   30.7151    1.2311 C.2       9 UNK         0.5033 
     58 O          35.3549   30.3512    0.3667 O.2       9 UNK        -0.5390 
     59 N          34.3087   30.0192    2.3493 N.am      10 UNK        -0.4215 
     60 CA         34.8665   28.7095    2.6663 C.3       10 UNK         0.0240 
     61 CB         33.7804   27.6354    2.4578 C.3       10 UNK        -0.1982 
     62 C          35.4537   28.7397    4.0832 C.2       10 UNK         0.4970 
     63 O          36.5712   29.2286    4.2546 O.2       10 UNK        -0.4916 
     64 N          34.7153   28.1998    5.0602 N.am      11 UNK        -0.4279 
     65 CA         35.1203   28.0831    6.4677 C.3       11 UNK         0.1003 
     66 C          35.2894   29.4253    7.2395 C.2       11 UNK         0.5709 
     67 N          34.6839   30.5234    6.8058 N.am      11 UNK        -0.7358 
     68 O          35.9974   29.4687    8.2433 O.2       11 UNK        -0.4999 
     69 C69        34.2155   27.0786    7.2280 C.3       12 UNK        -0.0954 
     70 S70        32.4591   27.5753    7.2937 S.3       12 UNK        -0.2268 
     71 C71        31.6600   26.0117    7.7637 C.3       12 UNK         0.0203 
     72 H72        26.8388   21.5172    0.4887 H         1 UNK         0.0888 
     73 H73        28.2105   20.4131    0.6203 H         1 UNK         0.0888 
     74 H74        27.9031   21.5931    1.8949 H         1 UNK         0.0888 
     75 H75        29.1756   23.4184    1.7768 H         1 UNK         0.3017 
     76 H76        30.9922   24.0064   -0.3098 H         1 UNK         0.0873 
     77 H77        30.0712   25.5854    2.1546 H         1 UNK         0.0745 
     78 H78        31.2153   26.2363    1.0220 H         1 UNK         0.0745 
     79 H79        30.7610   22.6613    2.9805 H         1 UNK         0.0705 
     80 H80        32.2274   22.7522    3.9035 H         1 UNK         0.0705 
     81 H81        32.5685   24.6295    5.5891 H         1 UNK         0.1334 
     82 H82        28.9583   26.0788    7.3986 H         1 UNK         0.1417 
     83 H83        28.7676   23.8254    3.7651 H         1 UNK         0.1562 
     84 H84        26.8176   24.8447    6.5862 H         1 UNK         0.0748 
     85 H85        26.7406   24.3468    4.9179 H         1 UNK         0.0748 
     86 H86        24.8176   27.1876    3.6950 H         1 UNK         0.0940 
     87 H87        25.2760   25.5169    3.5937 H         1 UNK         0.0940 
     88 H88        27.3419   26.1547    2.3175 H         1 UNK         0.0703 
     89 H89        26.2697   25.9608    0.3918 H         1 UNK         0.3081 
     90 H90        23.0371   26.2157   -0.6048 H         1 UNK         0.0719 
     91 H91        23.2758   28.6615   -1.0538 H         1 UNK         0.0809 
     92 H92        24.8952   28.4033   -1.6898 H         1 UNK         0.0809 
     93 H93        23.4947   27.7343   -2.5271 H         1 UNK         0.0809 
     94 H94        25.4098   26.0667   -2.2300 H         1 UNK         0.2990 
     95 H95        25.9560   22.5999   -1.8121 H         1 UNK         0.0690 
     96 H96        25.5765   22.6321   -4.2662 H         1 UNK         0.0788 
     97 H97        24.7273   24.1717   -4.1374 H         1 UNK         0.0788 
     98 H98        24.0578   22.7314   -3.3900 H         1 UNK         0.0788 
     99 H99        27.8456   23.6086   -2.1713 H         1 UNK         0.2993 
    100 H100       29.3163   25.3130   -4.0434 H         1 UNK         0.0949 
    101 H101       28.4864   27.7604   -2.4060 H         1 UNK         0.0767 
    102 H102       30.0833   27.5618   -3.1306 H         1 UNK         0.0767 
    103 H103       28.6562   27.6632   -4.1495 H         1 UNK         0.0767 
    104 H104       30.3290   24.5042   -2.2587 H         1 UNK         0.3013 
    105 H105       28.2222   27.6413    0.6628 H         1 UNK         0.3121 
    106 H106       28.0873   30.5297    1.2304 H         1 UNK         0.0774 
    107 H107       29.8755   28.8995   -0.6482 H         1 UNK         0.0815 
    108 H108       28.3889   29.7421   -1.0981 H         1 UNK         0.0815 
    109 H109       29.7925   30.6548   -0.5772 H         1 UNK         0.0815 
    110 H110       28.5610   29.5567    3.5753 H         1 UNK         0.2987 
    111 H111       31.0432   28.6763    4.4187 H         1 UNK         0.0949 
    112 H112       29.0743   28.6113    5.8619 H         1 UNK         0.0806 
    113 H113       30.3091   29.5466    6.6847 H         1 UNK         0.0806 
    114 H114       28.9684   30.3715    5.9055 H         1 UNK         0.0806 
    115 H115       30.0349   32.0583    3.9992 H         1 UNK         0.3010 
    116 H116       32.3200   33.3240    5.1051 H         1 UNK         0.0829 
    117 H117       30.3593   34.3042    2.9565 H         1 UNK         0.0813 
    118 H118       31.4689   35.3234    3.8621 H         1 UNK         0.0813 
    119 H119       30.1674   34.4974    4.7003 H         1 UNK         0.0813 
    120 H120       31.9931   31.6428    2.0631 H         1 UNK         0.3038 
    121 H121       34.5128   32.8348    0.9845 H         1 UNK         0.0769 
    122 H122       32.4926   32.9331   -0.5095 H         1 UNK         0.0811 
    123 H123       32.3361   31.1795   -0.4034 H         1 UNK         0.0811 
    124 H124       33.7460   31.8968   -1.1696 H         1 UNK         0.0811 
    125 H125       33.6806   30.4075    3.0453 H         1 UNK         0.3204 
    126 H126       35.6984   28.4755    1.9988 H         1 UNK         0.0748 
    127 H127       32.8717   27.8456    3.0223 H         1 UNK         0.0771 
    128 H128       33.4976   27.5695    1.4070 H         1 UNK         0.0771 
    129 H129       34.1420   26.6501    2.7542 H         1 UNK         0.0771 
    130 H130       33.7873   27.8690    4.8452 H         1 UNK         0.2980 
    131 H131       36.1187   27.6416    6.4515 H         1 UNK         0.0545 
    132 H132       34.0415   30.4784    6.0182 H         1 UNK         0.3459 
    133 H133       34.8066   31.3869    7.3080 H         1 UNK         0.3459 
    134 H134       34.5746   26.9340    8.2486 H         1 UNK         0.0616 
    135 H135       34.2823   26.1011    6.7480 H         1 UNK         0.0616 
    136 H136       32.4031   25.2888    8.1034 H         1 UNK         0.0634 
    137 H137       31.0134   26.2013    8.6217 H         1 UNK         0.0634 
@<TRIPOS>BOND
     1    1    2 1    
     2    1   72 1    
     3    1   73 1    
     4    1   74 1    
     5    2    3 2    
     6    2    4 am   BACKBONE|DICT|INTERRES
     7    4    5 1    
     8    4   75 1    
     9    5    6 1    
    10    5   35 1    
    11    5   76 1    
    12    6    7 1    
    13    6   77 1    
    14    6   78 1    
    15    7    8 1    
    16    8    9 1    
    17    8   79 1    
    18    8   80 1    
    19    9   10 ar   
    20    9   14 ar   
    21   10   11 ar   
    22   10   81 1    
    23   11   12 ar   
    24   11   71 1    
    25   12   13 ar   
    26   12   82 1    
    27   13   14 ar   
    28   13   15 1    
    29   14   83 1    
    30   15   16 1    
    31   15   84 1    
    32   15   85 1    
    33   16   17 1    
    34   17   18 1    
    35   17   86 1    
    36   17   87 1    
    37   18   19 1    
    38   18   37 1    
    39   18   88 1    
    40   19   20 am   BACKBONE|DICT|INTERRES
    41   19   89 1    
    42   20   21 2    
    43   20   22 1    
    44   22   23 1    
    45   22   24 1    
    46   22   90 1    
    47   23   91 1    
    48   23   92 1    
    49   23   93 1    
    50   24   25 am   BACKBONE|DICT|INTERRES
    51   24   94 1    
    52   25   26 2    
    53   25   27 1    
    54   27   28 1    
    55   27   29 1    
    56   27   95 1    
    57   28   96 1    
    58   28   97 1    
    59   28   98 1    
    60   29   30 am   BACKBONE|DICT|INTERRES
    61   29   99 1    
    62   30   31 2    
    63   30   32 1    
    64   32   33 1    
    65   32   34 1    
    66   32  100 1    
    67   33  101 1    
    68   33  102 1    
    69   33  103 1    
    70   34   35 am   BACKBONE|DICT|INTERRES
    71   34  104 1    
    72   35   36 2    
    73   37   38 2    
    74   37   39 am   BACKBONE|DICT|INTERRES
    75   39   40 1    
    76   39  105 1    
    77   40   41 1    
    78   40   42 1    
    79   40  106 1    
    80   41  107 1    
    81   41  108 1    
    82   41  109 1    
    83   42   43 2    
    84   42   44 am   BACKBONE|DICT|INTERRES
    85   44   45 1    
    86   44  110 1    
    87   45   46 1    
    88   45   47 1    
    89   45  111 1    
    90   46  112 1    
    91   46  113 1    
    92   46  114 1    
    93   47   48 2    
    94   47   49 am   BACKBONE|DICT|INTERRES
    95   49   50 1    
    96   49  115 1    
    97   50   51 1    
    98   50   52 1    
    99   50  116 1    
   100   51  117 1    
   101   51  118 1    
   102   51  119 1    
   103   52   53 2    
   104   52   54 am   BACKBONE|DICT|INTERRES
   105   54   55 1    
   106   54  120 1    
   107   55   56 1    
   108   55   57 1    
   109   55  121 1    
   110   56  122 1    
   111   56  123 1    
   112   56  124 1    
   113   57   58 2    
   114   57   59 am   BACKBONE|DICT|INTERRES
   115   59   60 1    
   116   59  125 1    
   117   60   61 1    
   118   60   62 1    
   119   60  126 1    
   120   61  127 1    
   121   61  128 1    
   122   61  129 1    
   123   62   63 2    
   124   62   64 am   BACKBONE|DICT|INTERRES
   125   64   65 1    
   126   64  130 1    
   127   65   66 1    
   128   65   69 1    
   129   65  131 1    
   130   66   67 am   BACKBONE|DICT|INTERRES
   131   66   68 2    
   132   67  132 1    
   133   67  133 1    
   134   69   70 1    
   135   69  134 1    
   136   69  135 1    
   137   70   71 1    
   138   71  136 1    
   139   71  137 1    
@<TRIPOS>SUBSTRUCTURE
     1 UNK         1 GROUP             0       ****    0 ROOT    
