@<TRIPOS>MOLECULE
3R136
137   139    1
SMALL
USER_CHARGES


@<TRIPOS>ATOM
      1 CA         30.3656   19.1749   -3.1837 C.3       0 UNK        -0.1979 
      2 C          29.4882   19.9390   -2.2037 C.2       0 UNK         0.4864 
      3 O          28.5500   20.6204   -2.6225 O.2       0 UNK        -0.5359 
      4 N          29.7774   19.8292   -0.9002 N.am      1 UNK        -0.4318 
      5 CA         29.0541   20.4890    0.1926 C.3       1 UNK         0.0824 
      6 C6         29.9342   20.6240    1.4650 C.3       12 UNK        -0.0944 
      7 S7         31.1311   21.9874    1.2976 S.3       12 UNK        -0.2672 
      8 C8         30.1173   23.3259    2.0029 C.3       12 UNK         0.0333 
      9 C9         30.6790   24.7100    1.7178 C.ar      12 UNK        -0.0807 
     10 C10        31.0113   25.5656    2.7721 C.ar      12 UNK        -0.0894 
     11 C11        31.4604   26.8644    2.5165 C.ar      12 UNK        -0.0804 
     12 C12        31.5925   27.3014    1.1955 C.ar      12 UNK        -0.0824 
     13 C13        31.2479   26.4596    0.1338 C.ar      12 UNK        -0.0762 
     14 C14        30.7924   25.1654    0.4008 C.ar      12 UNK        -0.0782 
     15 C15        31.3589   26.9457   -1.3030 C.3       12 UNK         0.0230 
     16 S16        29.7326   27.3835   -1.9972 S.3       12 UNK        -0.2608 
     17 C17        29.3103   28.8934   -1.0620 C.3       12 UNK        -0.0989 
     18 CA         27.9958   28.7538   -0.2536 C.3       5 UNK         0.0716 
     19 N          28.0298   27.6378    0.7011 N.am      5 UNK        -0.4135 
     20 C          26.9424   27.1167    1.2845 C.2       4 UNK         0.5031 
     21 O          25.7933   27.5212    1.0899 O.2       4 UNK        -0.5229 
     22 CA         27.1785   25.9734    2.2826 C.3       4 UNK         0.0329 
     23 CB         27.2519   26.5129    3.7200 C.3       4 UNK        -0.2001 
     24 N          26.1229   24.9621    2.1930 N.am      4 UNK        -0.4303 
     25 C          26.0311   24.0684    1.2013 C.2       3 UNK         0.5044 
     26 O          26.8631   23.9589    0.2948 O.2       3 UNK        -0.5152 
     27 CA         24.8136   23.1341    1.2210 C.3       3 UNK         0.0319 
     28 CB         23.5684   23.8219    0.6336 C.3       3 UNK        -0.2001 
     29 N          25.1605   21.9623    0.4275 N.am      3 UNK        -0.4354 
     30 C          24.6502   20.7298    0.5293 C.2       2 UNK         0.4964 
     31 O          23.7029   20.4333    1.2578 O.2       2 UNK        -0.5047 
     32 CA         25.3426   19.6357   -0.3078 C.3       2 UNK         0.0288 
     33 CB         24.6701   19.4955   -1.6829 C.3       2 UNK        -0.2113 
     34 N          26.7706   19.9169   -0.4907 N.am      2 UNK        -0.4145 
     35 C          27.6934   19.8145    0.4752 C.2       1 UNK         0.5006 
     36 O          27.4871   19.2506    1.5522 O.2       1 UNK        -0.5103 
     37 C          27.6500   30.0990    0.4196 C.2       5 UNK         0.5055 
     38 O          27.0720   30.9629   -0.2429 O.2       5 UNK        -0.5220 
     39 N          28.0214   30.2459    1.7029 N.am      6 UNK        -0.4450 
     40 CA         27.9720   31.4614    2.5270 C.3       6 UNK         0.0367 
     41 CB         26.5322   32.0096    2.6380 C.3       6 UNK        -0.1929 
     42 C          28.9754   32.5331    2.0540 C.2       6 UNK         0.5070 
     43 O          29.6951   32.3280    1.0736 O.2       6 UNK        -0.5237 
     44 N          29.0389   33.6483    2.7962 N.am      7 UNK        -0.4739 
     45 CA         29.8663   34.8528    2.5949 C.3       7 UNK         0.0276 
     46 CB         29.5202   35.5478    1.2633 C.3       7 UNK        -0.1927 
     47 C          31.3910   34.6562    2.7289 C.2       7 UNK         0.5013 
     48 O          32.0641   35.5568    3.2327 O.2       7 UNK        -0.5193 
     49 N          31.9109   33.5074    2.2826 N.am      8 UNK        -0.4253 
     50 CA         33.3095   33.0935    2.3878 C.3       8 UNK         0.0242 
     51 CB         33.4953   31.7794    1.6097 C.3       8 UNK        -0.2000 
     52 C          33.7392   32.9016    3.8500 C.2       8 UNK         0.4948 
     53 O          32.9619   32.3734    4.6478 O.2       8 UNK        -0.5275 
     54 N          34.9910   33.2680    4.1611 N.am      9 UNK        -0.4246 
     55 CA         35.5943   33.1491    5.4965 C.3       9 UNK         0.0261 
     56 CB         37.0067   33.7555    5.4774 C.3       9 UNK        -0.1959 
     57 C          35.6335   31.7090    6.0401 C.2       9 UNK         0.5033 
     58 O          35.5325   31.5157    7.2525 O.2       9 UNK        -0.5390 
     59 N          35.7213   30.7261    5.1324 N.am      10 UNK        -0.4215 
     60 CA         35.6316   29.2925    5.4186 C.3       10 UNK         0.0240 
     61 CB         35.9176   28.5050    4.1289 C.3       10 UNK        -0.1982 
     62 C          34.2850   28.8545    6.0269 C.2       10 UNK         0.4970 
     63 O          34.2519   27.8304    6.7101 O.2       10 UNK        -0.4916 
     64 N          33.2108   29.6192    5.7805 N.am      11 UNK        -0.4279 
     65 CA         31.8897   29.4061    6.3879 C.3       11 UNK         0.1003 
     66 C          31.7663   30.0212    7.8156 C.2       11 UNK         0.5709 
     67 N          32.7614   30.7297    8.3402 N.am      11 UNK        -0.7358 
     68 O          30.7461   29.8351    8.4749 O.2       11 UNK        -0.4999 
     69 C69        30.7356   29.8905    5.4635 C.3       12 UNK        -0.0954 
     70 S70        30.5062   29.0844    3.8317 S.3       12 UNK        -0.2268 
     71 C71        31.7874   27.8013    3.6671 C.3       12 UNK         0.0203 
     72 H72        30.8339   19.8658   -3.8842 H         1 UNK         0.0888 
     73 H73        31.1544   18.6189   -2.6772 H         1 UNK         0.0888 
     74 H74        29.7633   18.4674   -3.7531 H         1 UNK         0.0888 
     75 H75        30.5501   19.2439   -0.6160 H         1 UNK         0.3017 
     76 H76        28.8035   21.5002   -0.1380 H         1 UNK         0.0873 
     77 H77        30.4701   19.6957    1.6702 H         1 UNK         0.0745 
     78 H78        29.3332   20.8204    2.3555 H         1 UNK         0.0745 
     79 H79        29.1115   23.2721    1.5867 H         1 UNK         0.0705 
     80 H80        30.0139   23.1612    3.0767 H         1 UNK         0.0705 
     81 H81        30.9013   25.2280    3.7938 H         1 UNK         0.1334 
     82 H82        31.9448   28.3052    0.9996 H         1 UNK         0.1417 
     83 H83        30.5128   24.5144   -0.4171 H         1 UNK         0.1562 
     84 H84        31.8031   26.1604   -1.9165 H         1 UNK         0.0748 
     85 H85        32.0304   27.8029   -1.3753 H         1 UNK         0.0748 
     86 H86        29.2190   29.7049   -1.7872 H         1 UNK         0.0940 
     87 H87        30.1372   29.1777   -0.4094 H         1 UNK         0.0940 
     88 H88        27.1941   28.5450   -0.9659 H         1 UNK         0.0703 
     89 H89        28.9372   27.2310    0.8832 H         1 UNK         0.3081 
     90 H90        28.1289   25.4977    2.0475 H         1 UNK         0.0719 
     91 H91        26.3262   27.0096    4.0137 H         1 UNK         0.0809 
     92 H92        27.4471   25.7130    4.4344 H         1 UNK         0.0809 
     93 H93        28.0587   27.2391    3.8239 H         1 UNK         0.0809 
     94 H94        25.3795   25.0199    2.8740 H         1 UNK         0.2990 
     95 H95        24.6210   22.8285    2.2517 H         1 UNK         0.0690 
     96 H96        22.7043   23.1573    0.6457 H         1 UNK         0.0788 
     97 H97        23.7335   24.1375   -0.3975 H         1 UNK         0.0788 
     98 H98        23.3021   24.7098    1.2084 H         1 UNK         0.0788 
     99 H99        25.9565   22.1197   -0.1789 H         1 UNK         0.2993 
    100 H100       25.2380   18.6892    0.2274 H         1 UNK         0.0949 
    101 H101       25.1181   18.6875   -2.2619 H         1 UNK         0.0767 
    102 H102       23.6085   19.2675   -1.5760 H         1 UNK         0.0767 
    103 H103       24.7504   20.4124   -2.2683 H         1 UNK         0.0767 
    104 H104       27.0638   20.3221   -1.3761 H         1 UNK         0.3013 
    105 H105       28.5231   29.4767    2.1240 H         1 UNK         0.3121 
    106 H106       28.2891   31.1565    3.5253 H         1 UNK         0.0774 
    107 H107       26.4531   32.7614    3.4235 H         1 UNK         0.0815 
    108 H108       26.2012   32.4784    1.7108 H         1 UNK         0.0815 
    109 H109       25.8247   31.2173    2.8831 H         1 UNK         0.0815 
    110 H110       28.4427   33.6889    3.6117 H         1 UNK         0.2987 
    111 H111       29.5818   35.5354    3.3978 H         1 UNK         0.0949 
    112 H112       29.7844   34.9341    0.4015 H         1 UNK         0.0806 
    113 H113       28.4562   35.7756    1.1993 H         1 UNK         0.0806 
    114 H114       30.0596   36.4909    1.1650 H         1 UNK         0.0806 
    115 H115       31.2619   32.8525    1.8528 H         1 UNK         0.3010 
    116 H116       33.9255   33.8707    1.9308 H         1 UNK         0.0829 
    117 H117       33.2164   31.8958    0.5622 H         1 UNK         0.0813 
    118 H118       34.5350   31.4506    1.6325 H         1 UNK         0.0813 
    119 H119       32.8880   30.9750    2.0288 H         1 UNK         0.0813 
    120 H120       35.5673   33.6841    3.4429 H         1 UNK         0.3038 
    121 H121       34.9798   33.7350    6.1834 H         1 UNK         0.0769 
    122 H122       37.6633   33.2320    4.7813 H         1 UNK         0.0811 
    123 H123       37.4681   33.6999    6.4645 H         1 UNK         0.0811 
    124 H124       36.9840   34.8077    5.1928 H         1 UNK         0.0811 
    125 H125       35.8061   30.9900    4.1620 H         1 UNK         0.3204 
    126 H126       36.4081   29.0527    6.1479 H         1 UNK         0.0748 
    127 H127       35.2014   28.7426    3.3414 H         1 UNK         0.0771 
    128 H128       36.9172   28.7164    3.7485 H         1 UNK         0.0771 
    129 H129       35.8625   27.4298    4.3060 H         1 UNK         0.0771 
    130 H130       33.3083   30.4798    5.2515 H         1 UNK         0.2980 
    131 H131       31.7469   28.3362    6.5430 H         1 UNK         0.0545 
    132 H132       33.6216   30.8901    7.8303 H         1 UNK         0.3459 
    133 H133       32.6544   31.1077    9.2678 H         1 UNK         0.3459 
    134 H134       30.8311   30.9622    5.2847 H         1 UNK         0.0616 
    135 H135       29.7806   29.7714    5.9782 H         1 UNK         0.0616 
    136 H136       32.7521   28.2719    3.4795 H         1 UNK         0.0634 
    137 H137       31.8774   27.2328    4.5924 H         1 UNK         0.0634 
@<TRIPOS>BOND
     1    1    2 1    
     2    1   72 1    
     3    1   73 1    
     4    1   74 1    
     5    2    3 2    
     6    2    4 am   BACKBONE|DICT|INTERRES
     7    4    5 1    
     8    4   75 1    
     9    5    6 1    
    10    5   35 1    
    11    5   76 1    
    12    6    7 1    
    13    6   77 1    
    14    6   78 1    
    15    7    8 1    
    16    8    9 1    
    17    8   79 1    
    18    8   80 1    
    19    9   10 ar   
    20    9   14 ar   
    21   10   11 ar   
    22   10   81 1    
    23   11   12 ar   
    24   11   71 1    
    25   12   13 ar   
    26   12   82 1    
    27   13   14 ar   
    28   13   15 1    
    29   14   83 1    
    30   15   16 1    
    31   15   84 1    
    32   15   85 1    
    33   16   17 1    
    34   17   18 1    
    35   17   86 1    
    36   17   87 1    
    37   18   19 1    
    38   18   37 1    
    39   18   88 1    
    40   19   20 am   BACKBONE|DICT|INTERRES
    41   19   89 1    
    42   20   21 2    
    43   20   22 1    
    44   22   23 1    
    45   22   24 1    
    46   22   90 1    
    47   23   91 1    
    48   23   92 1    
    49   23   93 1    
    50   24   25 am   BACKBONE|DICT|INTERRES
    51   24   94 1    
    52   25   26 2    
    53   25   27 1    
    54   27   28 1    
    55   27   29 1    
    56   27   95 1    
    57   28   96 1    
    58   28   97 1    
    59   28   98 1    
    60   29   30 am   BACKBONE|DICT|INTERRES
    61   29   99 1    
    62   30   31 2    
    63   30   32 1    
    64   32   33 1    
    65   32   34 1    
    66   32  100 1    
    67   33  101 1    
    68   33  102 1    
    69   33  103 1    
    70   34   35 am   BACKBONE|DICT|INTERRES
    71   34  104 1    
    72   35   36 2    
    73   37   38 2    
    74   37   39 am   BACKBONE|DICT|INTERRES
    75   39   40 1    
    76   39  105 1    
    77   40   41 1    
    78   40   42 1    
    79   40  106 1    
    80   41  107 1    
    81   41  108 1    
    82   41  109 1    
    83   42   43 2    
    84   42   44 am   BACKBONE|DICT|INTERRES
    85   44   45 1    
    86   44  110 1    
    87   45   46 1    
    88   45   47 1    
    89   45  111 1    
    90   46  112 1    
    91   46  113 1    
    92   46  114 1    
    93   47   48 2    
    94   47   49 am   BACKBONE|DICT|INTERRES
    95   49   50 1    
    96   49  115 1    
    97   50   51 1    
    98   50   52 1    
    99   50  116 1    
   100   51  117 1    
   101   51  118 1    
   102   51  119 1    
   103   52   53 2    
   104   52   54 am   BACKBONE|DICT|INTERRES
   105   54   55 1    
   106   54  120 1    
   107   55   56 1    
   108   55   57 1    
   109   55  121 1    
   110   56  122 1    
   111   56  123 1    
   112   56  124 1    
   113   57   58 2    
   114   57   59 am   BACKBONE|DICT|INTERRES
   115   59   60 1    
   116   59  125 1    
   117   60   61 1    
   118   60   62 1    
   119   60  126 1    
   120   61  127 1    
   121   61  128 1    
   122   61  129 1    
   123   62   63 2    
   124   62   64 am   BACKBONE|DICT|INTERRES
   125   64   65 1    
   126   64  130 1    
   127   65   66 1    
   128   65   69 1    
   129   65  131 1    
   130   66   67 am   BACKBONE|DICT|INTERRES
   131   66   68 2    
   132   67  132 1    
   133   67  133 1    
   134   69   70 1    
   135   69  134 1    
   136   69  135 1    
   137   70   71 1    
   138   71  136 1    
   139   71  137 1    
@<TRIPOS>SUBSTRUCTURE
     1 UNK         1 GROUP             0       ****    0 ROOT    
