@<TRIPOS>MOLECULE
3R136
137   139    1
SMALL
USER_CHARGES


@<TRIPOS>ATOM
      1 CA         25.5205   18.3088    1.2728 C.3       0 UNK        -0.1979 
      2 C          26.4420   19.4948    1.0307 C.2       0 UNK         0.4864 
      3 O          25.9967   20.6407    1.1113 O.2       0 UNK        -0.5359 
      4 N          27.7181   19.2303    0.7152 N.am      1 UNK        -0.4318 
      5 CA         28.8077   20.1890    0.4676 C.3       1 UNK         0.0824 
      6 C6         29.0817   21.1220    1.6782 C.3       12 UNK        -0.0944 
      7 S7         30.8059   21.7172    1.7294 S.3       12 UNK        -0.2672 
      8 C8         30.5797   23.5161    1.5801 C.3       12 UNK         0.0333 
      9 C9         30.1252   24.1359    2.8918 C.ar      12 UNK        -0.0807 
     10 C10        31.0550   24.3746    3.9065 C.ar      12 UNK        -0.0894 
     11 C11        30.6599   24.9646    5.1103 C.ar      12 UNK        -0.0804 
     12 C12        29.3157   25.3010    5.3017 C.ar      12 UNK        -0.0824 
     13 C13        28.3759   25.0704    4.2905 C.ar      12 UNK        -0.0762 
     14 C14        28.7871   24.4879    3.0874 C.ar      12 UNK        -0.0782 
     15 C15        26.9202   25.4717    4.4818 C.3       12 UNK         0.0230 
     16 S16        26.4621   26.8840    3.4239 S.3       12 UNK        -0.2608 
     17 C17        27.5092   28.2177    4.1007 C.3       12 UNK        -0.0989 
     18 CA         28.8749   28.3472    3.3688 C.3       5 UNK         0.0716 
     19 N          28.6934   28.5308    1.9261 N.am      5 UNK        -0.4135 
     20 C          29.5797   28.2046    0.9785 C.2       4 UNK         0.5031 
     21 O          30.7072   27.7603    1.1978 O.2       4 UNK        -0.5229 
     22 CA         29.1217   28.4262   -0.4749 C.3       4 UNK         0.0329 
     23 CB         29.7492   29.7062   -1.0494 C.3       4 UNK        -0.2001 
     24 N          29.4615   27.3061   -1.3561 N.am      4 UNK        -0.4303 
     25 C          29.0575   26.0381   -1.2033 C.2       3 UNK         0.5044 
     26 O          28.3186   25.6533   -0.2933 O.2       3 UNK        -0.5152 
     27 CA         29.5822   25.0436   -2.2585 C.3       3 UNK         0.0319 
     28 CB         31.0870   24.7777   -2.0767 C.3       3 UNK        -0.2001 
     29 N          28.8737   23.7630   -2.2288 N.am      3 UNK        -0.4354 
     30 C          27.6022   23.5655   -2.5954 C.2       2 UNK         0.4964 
     31 O          26.8961   24.4414   -3.0978 O.2       2 UNK        -0.5047 
     32 CA         27.0001   22.1634   -2.3751 C.3       2 UNK         0.0288 
     33 CB         27.1697   21.2880   -3.6325 C.3       2 UNK        -0.2113 
     34 N          27.4547   21.4534   -1.1677 N.am      2 UNK        -0.4145 
     35 C          28.6671   20.9702   -0.8602 C.2       1 UNK         0.5006 
     36 O          29.6566   21.1090   -1.5810 O.2       1 UNK        -0.5103 
     37 C          29.7546   29.4489    3.9982 C.2       5 UNK         0.5055 
     38 O          30.2462   30.3378    3.2966 O.2       5 UNK        -0.5220 
     39 N          29.9357   29.3727    5.3261 N.am      6 UNK        -0.4450 
     40 CA         30.7312   30.2859    6.1553 C.3       6 UNK         0.0367 
     41 CB         30.6118   29.8806    7.6344 C.3       6 UNK        -0.1929 
     42 C          30.3683   31.7679    5.9758 C.2       6 UNK         0.5070 
     43 O          31.2442   32.5806    5.6803 O.2       6 UNK        -0.5237 
     44 N          29.0741   32.0794    6.1174 N.am      7 UNK        -0.4739 
     45 CA         28.5330   33.4340    5.9740 C.3       7 UNK         0.0276 
     46 CB         27.1175   33.4729    6.5732 C.3       7 UNK        -0.1927 
     47 C          28.5150   33.9423    4.5211 C.2       7 UNK         0.5013 
     48 O          28.4604   35.1551    4.3136 O.2       7 UNK        -0.5193 
     49 N          28.5400   33.0183    3.5515 N.am      8 UNK        -0.4253 
     50 CA         28.5264   33.3204    2.1234 C.3       8 UNK         0.0242 
     51 CB         27.8509   32.1735    1.3554 C.3       8 UNK        -0.2000 
     52 C          29.9390   33.6001    1.5923 C.2       8 UNK         0.4948 
     53 O          30.1469   34.6512    0.9843 O.2       8 UNK        -0.5275 
     54 N          30.8796   32.6713    1.8204 N.am      9 UNK        -0.4246 
     55 CA         32.2512   32.7589    1.3122 C.3       9 UNK         0.0261 
     56 CB         32.2912   32.4660   -0.2042 C.3       9 UNK        -0.1959 
     57 C          33.2195   31.8676    2.1062 C.2       9 UNK         0.5033 
     58 O          34.0338   31.1676    1.5000 O.2       9 UNK        -0.5390 
     59 N          33.1354   31.9087    3.4454 N.am      10 UNK        -0.4215 
     60 CA         34.0797   31.2960    4.3946 C.3       10 UNK         0.0240 
     61 CB         35.4169   32.0687    4.3778 C.3       10 UNK        -0.1982 
     62 C          34.2766   29.7739    4.2180 C.2       10 UNK         0.4970 
     63 O          35.3821   29.2782    4.4428 O.2       10 UNK        -0.4916 
     64 N          33.2102   29.0705    3.8105 N.am      11 UNK        -0.4279 
     65 CA         33.1913   27.6308    3.4881 C.3       11 UNK         0.1003 
     66 C          33.9642   27.2582    2.1839 C.2       11 UNK         0.5709 
     67 N          34.3708   28.2078    1.3471 N.am      11 UNK        -0.7358 
     68 O          34.1846   26.0810    1.9077 O.2       11 UNK        -0.4999 
     69 C69        33.5665   26.7168    4.6943 C.3       12 UNK        -0.0954 
     70 S70        32.4104   26.8883    6.0958 S.3       12 UNK        -0.2268 
     71 C71        31.6806   25.2226    6.2097 C.3       12 UNK         0.0203 
     72 H72        26.0419   17.3577    1.1657 H         1 UNK         0.0888 
     73 H73        25.1061   18.3565    2.2795 H         1 UNK         0.0888 
     74 H74        24.6941   18.3249    0.5627 H         1 UNK         0.0888 
     75 H75        27.9946   18.2612    0.6323 H         1 UNK         0.3017 
     76 H76        29.6860   19.5530    0.3426 H         1 UNK         0.0873 
     77 H77        28.3799   21.9569    1.6980 H         1 UNK         0.0745 
     78 H78        28.9158   20.5791    2.6100 H         1 UNK         0.0745 
     79 H79        29.8692   23.7295    0.7812 H         1 UNK         0.0705 
     80 H80        31.5262   23.9688    1.2802 H         1 UNK         0.0705 
     81 H81        32.0882   24.0967    3.7523 H         1 UNK         0.1334 
     82 H82        29.0056   25.7525    6.2341 H         1 UNK         0.1417 
     83 H83        28.0661   24.3280    2.2967 H         1 UNK         0.1562 
     84 H84        26.7130   25.7160    5.5249 H         1 UNK         0.0748 
     85 H85        26.2800   24.6237    4.2341 H         1 UNK         0.0748 
     86 H86        27.6375   28.0325    5.1681 H         1 UNK         0.0940 
     87 H87        26.9487   29.1518    4.0258 H         1 UNK         0.0940 
     88 H88        29.4326   27.4206    3.5041 H         1 UNK         0.0703 
     89 H89        27.7907   28.8803    1.6436 H         1 UNK         0.3081 
     90 H90        28.0352   28.5354   -0.4876 H         1 UNK         0.0719 
     91 H91        30.8263   29.5933   -1.1760 H         1 UNK         0.0809 
     92 H92        29.3219   29.9579   -2.0202 H         1 UNK         0.0809 
     93 H93        29.5880   30.5612   -0.3936 H         1 UNK         0.0809 
     94 H94        30.0890   27.5177   -2.1176 H         1 UNK         0.2990 
     95 H95        29.4261   25.4896   -3.2431 H         1 UNK         0.0690 
     96 H96        31.4701   24.1285   -2.8644 H         1 UNK         0.0788 
     97 H97        31.3027   24.3010   -1.1215 H         1 UNK         0.0788 
     98 H98        31.6642   25.7023   -2.1153 H         1 UNK         0.0788 
     99 H99        29.3788   22.9601   -1.8666 H         1 UNK         0.2993 
    100 H100       25.9295   22.3166   -2.2286 H         1 UNK         0.0949 
    101 H101       28.2192   21.0973   -3.8588 H         1 UNK         0.0767 
    102 H102       26.6709   20.3258   -3.5158 H         1 UNK         0.0767 
    103 H103       26.7344   21.7747   -4.5064 H         1 UNK         0.0767 
    104 H104       26.7398   21.3073   -0.4566 H         1 UNK         0.3013 
    105 H105       29.5235   28.5937    5.8178 H         1 UNK         0.3121 
    106 H106       31.7728   30.1617    5.8669 H         1 UNK         0.0774 
    107 H107       31.2009   30.5445    8.2688 H         1 UNK         0.0815 
    108 H108       29.5814   29.9223    7.9889 H         1 UNK         0.0815 
    109 H109       30.9807   28.8696    7.8041 H         1 UNK         0.0815 
    110 H110       28.4210   31.3468    6.3554 H         1 UNK         0.2987 
    111 H111       29.1659   34.1165    6.5462 H         1 UNK         0.0949 
    112 H112       26.6949   34.4769    6.5112 H         1 UNK         0.0806 
    113 H113       26.4372   32.8008    6.0485 H         1 UNK         0.0806 
    114 H114       27.1238   33.1919    7.6265 H         1 UNK         0.0806 
    115 H115       28.6484   32.0503    3.8167 H         1 UNK         0.3010 
    116 H116       27.9278   34.2192    1.9568 H         1 UNK         0.0829 
    117 H117       26.8128   32.0496    1.6642 H         1 UNK         0.0813 
    118 H118       27.8484   32.3697    0.2823 H         1 UNK         0.0813 
    119 H119       28.3617   31.2266    1.5159 H         1 UNK         0.0813 
    120 H120       30.6397   31.8263    2.3402 H         1 UNK         0.3038 
    121 H121       32.6038   33.7813    1.4641 H         1 UNK         0.0769 
    122 H122       33.2943   32.6187   -0.6045 H         1 UNK         0.0811 
    123 H123       31.6228   33.1178   -0.7663 H         1 UNK         0.0811 
    124 H124       32.0133   31.4348   -0.4148 H         1 UNK         0.0811 
    125 H125       32.3979   32.4588    3.8746 H         1 UNK         0.3204 
    126 H126       33.6522   31.4298    5.3880 H         1 UNK         0.0748 
    127 H127       36.0826   31.7229    5.1697 H         1 UNK         0.0771 
    128 H128       35.9434   31.9427    3.4310 H         1 UNK         0.0771 
    129 H129       35.2601   33.1359    4.5351 H         1 UNK         0.0771 
    130 H130       32.3585   29.5728    3.5967 H         1 UNK         0.2980 
    131 H131       32.1518   27.4082    3.2541 H         1 UNK         0.0545 
    132 H132       34.8574   27.9418    0.5070 H         1 UNK         0.3459 
    133 H133       34.1969   29.1897    1.5372 H         1 UNK         0.3459 
    134 H134       33.5923   25.6702    4.3937 H         1 UNK         0.0616 
    135 H135       34.5734   26.9308    5.0522 H         1 UNK         0.0616 
    136 H136       32.4715   24.4714    6.1841 H         1 UNK         0.0634 
    137 H137       31.2016   25.1211    7.1846 H         1 UNK         0.0634 
@<TRIPOS>BOND
     1    1    2 1    
     2    1   72 1    
     3    1   73 1    
     4    1   74 1    
     5    2    3 2    
     6    2    4 am   BACKBONE|DICT|INTERRES
     7    4    5 1    
     8    4   75 1    
     9    5    6 1    
    10    5   35 1    
    11    5   76 1    
    12    6    7 1    
    13    6   77 1    
    14    6   78 1    
    15    7    8 1    
    16    8    9 1    
    17    8   79 1    
    18    8   80 1    
    19    9   10 ar   
    20    9   14 ar   
    21   10   11 ar   
    22   10   81 1    
    23   11   12 ar   
    24   11   71 1    
    25   12   13 ar   
    26   12   82 1    
    27   13   14 ar   
    28   13   15 1    
    29   14   83 1    
    30   15   16 1    
    31   15   84 1    
    32   15   85 1    
    33   16   17 1    
    34   17   18 1    
    35   17   86 1    
    36   17   87 1    
    37   18   19 1    
    38   18   37 1    
    39   18   88 1    
    40   19   20 am   BACKBONE|DICT|INTERRES
    41   19   89 1    
    42   20   21 2    
    43   20   22 1    
    44   22   23 1    
    45   22   24 1    
    46   22   90 1    
    47   23   91 1    
    48   23   92 1    
    49   23   93 1    
    50   24   25 am   BACKBONE|DICT|INTERRES
    51   24   94 1    
    52   25   26 2    
    53   25   27 1    
    54   27   28 1    
    55   27   29 1    
    56   27   95 1    
    57   28   96 1    
    58   28   97 1    
    59   28   98 1    
    60   29   30 am   BACKBONE|DICT|INTERRES
    61   29   99 1    
    62   30   31 2    
    63   30   32 1    
    64   32   33 1    
    65   32   34 1    
    66   32  100 1    
    67   33  101 1    
    68   33  102 1    
    69   33  103 1    
    70   34   35 am   BACKBONE|DICT|INTERRES
    71   34  104 1    
    72   35   36 2    
    73   37   38 2    
    74   37   39 am   BACKBONE|DICT|INTERRES
    75   39   40 1    
    76   39  105 1    
    77   40   41 1    
    78   40   42 1    
    79   40  106 1    
    80   41  107 1    
    81   41  108 1    
    82   41  109 1    
    83   42   43 2    
    84   42   44 am   BACKBONE|DICT|INTERRES
    85   44   45 1    
    86   44  110 1    
    87   45   46 1    
    88   45   47 1    
    89   45  111 1    
    90   46  112 1    
    91   46  113 1    
    92   46  114 1    
    93   47   48 2    
    94   47   49 am   BACKBONE|DICT|INTERRES
    95   49   50 1    
    96   49  115 1    
    97   50   51 1    
    98   50   52 1    
    99   50  116 1    
   100   51  117 1    
   101   51  118 1    
   102   51  119 1    
   103   52   53 2    
   104   52   54 am   BACKBONE|DICT|INTERRES
   105   54   55 1    
   106   54  120 1    
   107   55   56 1    
   108   55   57 1    
   109   55  121 1    
   110   56  122 1    
   111   56  123 1    
   112   56  124 1    
   113   57   58 2    
   114   57   59 am   BACKBONE|DICT|INTERRES
   115   59   60 1    
   116   59  125 1    
   117   60   61 1    
   118   60   62 1    
   119   60  126 1    
   120   61  127 1    
   121   61  128 1    
   122   61  129 1    
   123   62   63 2    
   124   62   64 am   BACKBONE|DICT|INTERRES
   125   64   65 1    
   126   64  130 1    
   127   65   66 1    
   128   65   69 1    
   129   65  131 1    
   130   66   67 am   BACKBONE|DICT|INTERRES
   131   66   68 2    
   132   67  132 1    
   133   67  133 1    
   134   69   70 1    
   135   69  134 1    
   136   69  135 1    
   137   70   71 1    
   138   71  136 1    
   139   71  137 1    
@<TRIPOS>SUBSTRUCTURE
     1 UNK         1 GROUP             0       ****    0 ROOT    
