@<TRIPOS>MOLECULE
3R136
137   139    1
SMALL
USER_CHARGES


@<TRIPOS>ATOM
      1 CA         29.1402   24.5528    5.4379 C.3       0 UNK        -0.1979 
      2 C          28.2232   23.5311    4.7814 C.2       0 UNK         0.4864 
      3 O          27.4262   22.8887    5.4672 O.2       0 UNK        -0.5359 
      4 N          28.3355   23.3787    3.4569 N.am      1 UNK        -0.4318 
      5 CA         27.4771   22.5250    2.6302 C.3       1 UNK         0.0824 
      6 C6         28.1330   22.2258    1.2576 C.3       12 UNK        -0.0944 
      7 S7         29.6884   21.2913    1.3984 S.3       12 UNK        -0.2672 
      8 C8         30.6292   21.9623   -0.0193 C.3       12 UNK         0.0333 
      9 C9         31.3860   23.2726    0.2223 C.ar      12 UNK        -0.0807 
     10 C10        31.5072   23.8674    1.4858 C.ar      12 UNK        -0.0894 
     11 C11        32.2727   25.0240    1.6618 C.ar      12 UNK        -0.0804 
     12 C12        32.9234   25.5958    0.5650 C.ar      12 UNK        -0.0824 
     13 C13        32.8182   25.0130   -0.7007 C.ar      12 UNK        -0.0762 
     14 C14        32.0408   23.8623   -0.8646 C.ar      12 UNK        -0.0782 
     15 C15        33.6036   25.5743   -1.8784 C.3       12 UNK         0.0230 
     16 S16        32.5501   26.4731   -3.0581 S.3       12 UNK        -0.2608 
     17 C17        32.2706   28.0547   -2.1937 C.3       12 UNK        -0.0989 
     18 CA         30.7659   28.3264   -1.9629 C.3       5 UNK         0.0716 
     19 N          30.1317   27.3014   -1.1272 N.am      5 UNK        -0.4135 
     20 C          28.8089   27.1672   -0.9696 C.2       4 UNK         0.5031 
     21 O          27.9686   27.8909   -1.5104 O.2       4 UNK        -0.5229 
     22 CA         28.3526   26.0703    0.0039 C.3       4 UNK         0.0329 
     23 CB         28.2285   26.6620    1.4172 C.3       4 UNK        -0.2001 
     24 N          27.0663   25.4817   -0.3811 N.am      4 UNK        -0.4303 
     25 C          26.8399   24.7846   -1.5037 C.2       3 UNK         0.5044 
     26 O          27.7235   24.4652   -2.3008 O.2       3 UNK        -0.5152 
     27 CA         25.3879   24.3311   -1.7335 C.3       3 UNK         0.0319 
     28 CB         25.2050   23.5277   -3.0352 C.3       3 UNK        -0.2001 
     29 N          24.9732   23.5095   -0.5994 N.am      3 UNK        -0.4354 
     30 C          23.9345   23.7493    0.2118 C.2       2 UNK         0.4964 
     31 O          23.1075   24.6428    0.0291 O.2       2 UNK        -0.5047 
     32 CA         23.8224   22.8570    1.4655 C.3       2 UNK         0.0288 
     33 CB         22.9040   21.6546    1.1927 C.3       2 UNK        -0.2113 
     34 N          25.1256   22.3772    1.9467 N.am      2 UNK        -0.4145 
     35 C          26.0954   23.1783    2.4142 C.2       1 UNK         0.5006 
     36 O          25.9438   24.3902    2.5901 O.2       1 UNK        -0.5103 
     37 C          30.5469   29.7463   -1.4030 C.2       5 UNK         0.5055 
     38 O          30.2624   30.6625   -2.1761 O.2       5 UNK        -0.5220 
     39 N          30.6607   29.8950   -0.0769 N.am      6 UNK        -0.4450 
     40 CA         30.4037   31.1261    0.6620 C.3       6 UNK         0.0367 
     41 CB         31.5105   32.1699    0.4107 C.3       6 UNK        -0.1929 
     42 C          30.2650   30.7465    2.1390 C.2       6 UNK         0.5070 
     43 O          31.2604   30.7335    2.8705 O.2       6 UNK        -0.5237 
     44 N          29.0354   30.3865    2.5325 N.am      7 UNK        -0.4739 
     45 CA         28.6611   29.9833    3.8917 C.3       7 UNK         0.0276 
     46 CB         27.1534   29.6903    3.9434 C.3       7 UNK        -0.1927 
     47 C          29.0362   31.0500    4.9337 C.2       7 UNK         0.5013 
     48 O          28.7705   32.2336    4.7096 O.2       7 UNK        -0.5193 
     49 N          29.6809   30.6132    6.0241 N.am      8 UNK        -0.4253 
     50 CA         30.2783   31.3998    7.1145 C.3       8 UNK         0.0242 
     51 CB         29.2184   32.2244    7.8710 C.3       8 UNK        -0.2000 
     52 C          31.4710   32.2816    6.6928 C.2       8 UNK         0.4948 
     53 O          32.4751   32.2995    7.4042 O.2       8 UNK        -0.5275 
     54 N          31.3569   32.9813    5.5571 N.am      9 UNK        -0.4246 
     55 CA         32.3711   33.8770    4.9981 C.3       9 UNK         0.0261 
     56 CB         31.7775   34.6464    3.8087 C.3       9 UNK        -0.1959 
     57 C          33.6727   33.1572    4.6068 C.2       9 UNK         0.5033 
     58 O          34.7485   33.6271    4.9813 O.2       9 UNK        -0.5390 
     59 N          33.5553   32.0299    3.8921 N.am      10 UNK        -0.4215 
     60 CA         34.6698   31.1269    3.5931 C.3       10 UNK         0.0240 
     61 CB         34.6641   30.7458    2.1038 C.3       10 UNK        -0.1982 
     62 C          34.5897   29.8650    4.4593 C.2       10 UNK         0.4970 
     63 O          35.6265   29.3977    4.9315 O.2       10 UNK        -0.4916 
     64 N          33.3738   29.3327    4.6471 N.am      11 UNK        -0.4279 
     65 CA         33.1269   28.0884    5.3941 C.3       11 UNK         0.1003 
     66 C          33.3047   28.1850    6.9379 C.2       11 UNK         0.5709 
     67 N          33.4416   29.3645    7.5299 N.am      11 UNK        -0.7358 
     68 O          33.3258   27.1598    7.6145 O.2       11 UNK        -0.4999 
     69 C69        31.7593   27.4540    5.0324 C.3       12 UNK        -0.0954 
     70 S70        31.5389   27.1727    3.2443 S.3       12 UNK        -0.2268 
     71 C71        32.4523   25.6153    3.0508 C.3       12 UNK         0.0203 
     72 H72        29.8989   24.0497    6.0366 H         1 UNK         0.0888 
     73 H73        29.6430   25.1753    4.6986 H         1 UNK         0.0888 
     74 H74        28.5663   25.2084    6.0922 H         1 UNK         0.0888 
     75 H75        28.9925   23.9489    2.9482 H         1 UNK         0.3017 
     76 H76        27.3200   21.5812    3.1574 H         1 UNK         0.0873 
     77 H77        27.4699   21.6353    0.6230 H         1 UNK         0.0745 
     78 H78        28.3236   23.1538    0.7182 H         1 UNK         0.0745 
     79 H79        31.3569   21.2061   -0.3168 H         1 UNK         0.0705 
     80 H80        29.9532   22.0837   -0.8676 H         1 UNK         0.0705 
     81 H81        31.0433   23.4161    2.3496 H         1 UNK         0.1334 
     82 H82        33.5375   26.4748    0.7084 H         1 UNK         0.1417 
     83 H83        31.9743   23.4038   -1.8426 H         1 UNK         0.1562 
     84 H84        34.0876   24.7509   -2.4059 H         1 UNK         0.0748 
     85 H85        34.4111   26.2244   -1.5378 H         1 UNK         0.0748 
     86 H86        32.7090   28.8427   -2.8098 H         1 UNK         0.0940 
     87 H87        32.8184   28.0723   -1.2499 H         1 UNK         0.0940 
     88 H88        30.2717   28.2951   -2.9369 H         1 UNK         0.0703 
     89 H89        30.7530   26.6465   -0.6736 H         1 UNK         0.3081 
     90 H90        29.1055   25.2799    0.0121 H         1 UNK         0.0719 
     91 H91        28.0720   25.8885    2.1661 H         1 UNK         0.0809 
     92 H92        27.3974   27.3643    1.4824 H         1 UNK         0.0809 
     93 H93        29.1286   27.2058    1.7004 H         1 UNK         0.0809 
     94 H94        26.2835   25.6808    0.2259 H         1 UNK         0.2990 
     95 H95        24.7786   25.2350   -1.8008 H         1 UNK         0.0690 
     96 H96        24.1626   23.2438   -3.1801 H         1 UNK         0.0788 
     97 H97        25.8033   22.6156   -3.0360 H         1 UNK         0.0788 
     98 H98        25.5040   24.1170   -3.9031 H         1 UNK         0.0788 
     99 H99        25.5940   22.7506   -0.3606 H         1 UNK         0.2993 
    100 H100       23.3734   23.4615    2.2569 H         1 UNK         0.0949 
    101 H101       22.7536   21.0577    2.0925 H         1 UNK         0.0767 
    102 H102       21.9197   21.9848    0.8572 H         1 UNK         0.0767 
    103 H103       23.3097   21.0017    0.4187 H         1 UNK         0.0767 
    104 H104       25.3095   21.3889    1.8452 H         1 UNK         0.3013 
    105 H105       30.8867   29.0905    0.4924 H         1 UNK         0.3121 
    106 H106       29.4543   31.5482    0.3253 H         1 UNK         0.0774 
    107 H107       31.3272   33.0768    0.9839 H         1 UNK         0.0815 
    108 H108       32.4933   31.7964    0.6871 H         1 UNK         0.0815 
    109 H109       31.5537   32.4652   -0.6372 H         1 UNK         0.0815 
    110 H110       28.2839   30.4330    1.8599 H         1 UNK         0.2987 
    111 H111       29.1978   29.0597    4.1124 H         1 UNK         0.0949 
    112 H112       26.5630   30.5725    3.6918 H         1 UNK         0.0806 
    113 H113       26.8758   28.8927    3.2553 H         1 UNK         0.0806 
    114 H114       26.8516   29.3714    4.9421 H         1 UNK         0.0806 
    115 H115       29.8356   29.6185    6.0998 H         1 UNK         0.3010 
    116 H116       30.6748   30.6646    7.8171 H         1 UNK         0.0829 
    117 H117       28.4076   31.5918    8.2321 H         1 UNK         0.0813 
    118 H118       29.6579   32.7152    8.7403 H         1 UNK         0.0813 
    119 H119       28.7822   33.0052    7.2475 H         1 UNK         0.0813 
    120 H120       30.4776   32.8954    5.0519 H         1 UNK         0.3038 
    121 H121       32.6251   34.6038    5.7727 H         1 UNK         0.0769 
    122 H122       31.3785   33.9699    3.0550 H         1 UNK         0.0811 
    123 H123       32.5296   35.2734    3.3278 H         1 UNK         0.0811 
    124 H124       30.9664   35.3008    4.1287 H         1 UNK         0.0811 
    125 H125       32.6295   31.7155    3.6053 H         1 UNK         0.3204 
    126 H126       35.6238   31.6139    3.8059 H         1 UNK         0.0748 
    127 H127       34.7398   31.6293    1.4702 H         1 UNK         0.0771 
    128 H128       35.5141   30.1052    1.8650 H         1 UNK         0.0771 
    129 H129       33.7618   30.1997    1.8260 H         1 UNK         0.0771 
    130 H130       32.5758   29.7393    4.1739 H         1 UNK         0.2980 
    131 H131       33.8930   27.3804    5.0729 H         1 UNK         0.0545 
    132 H132       33.5636   29.3955    8.5294 H         1 UNK         0.3459 
    133 H133       33.4259   30.2254    7.0045 H         1 UNK         0.3459 
    134 H134       31.6272   26.5019    5.5495 H         1 UNK         0.0616 
    135 H135       30.9476   28.0935    5.3761 H         1 UNK         0.0616 
    136 H136       32.1247   24.9058    3.8121 H         1 UNK         0.0634 
    137 H137       33.5126   25.7952    3.2328 H         1 UNK         0.0634 
@<TRIPOS>BOND
     1    1    2 1    
     2    1   72 1    
     3    1   73 1    
     4    1   74 1    
     5    2    3 2    
     6    2    4 am   BACKBONE|DICT|INTERRES
     7    4    5 1    
     8    4   75 1    
     9    5    6 1    
    10    5   35 1    
    11    5   76 1    
    12    6    7 1    
    13    6   77 1    
    14    6   78 1    
    15    7    8 1    
    16    8    9 1    
    17    8   79 1    
    18    8   80 1    
    19    9   10 ar   
    20    9   14 ar   
    21   10   11 ar   
    22   10   81 1    
    23   11   12 ar   
    24   11   71 1    
    25   12   13 ar   
    26   12   82 1    
    27   13   14 ar   
    28   13   15 1    
    29   14   83 1    
    30   15   16 1    
    31   15   84 1    
    32   15   85 1    
    33   16   17 1    
    34   17   18 1    
    35   17   86 1    
    36   17   87 1    
    37   18   19 1    
    38   18   37 1    
    39   18   88 1    
    40   19   20 am   BACKBONE|DICT|INTERRES
    41   19   89 1    
    42   20   21 2    
    43   20   22 1    
    44   22   23 1    
    45   22   24 1    
    46   22   90 1    
    47   23   91 1    
    48   23   92 1    
    49   23   93 1    
    50   24   25 am   BACKBONE|DICT|INTERRES
    51   24   94 1    
    52   25   26 2    
    53   25   27 1    
    54   27   28 1    
    55   27   29 1    
    56   27   95 1    
    57   28   96 1    
    58   28   97 1    
    59   28   98 1    
    60   29   30 am   BACKBONE|DICT|INTERRES
    61   29   99 1    
    62   30   31 2    
    63   30   32 1    
    64   32   33 1    
    65   32   34 1    
    66   32  100 1    
    67   33  101 1    
    68   33  102 1    
    69   33  103 1    
    70   34   35 am   BACKBONE|DICT|INTERRES
    71   34  104 1    
    72   35   36 2    
    73   37   38 2    
    74   37   39 am   BACKBONE|DICT|INTERRES
    75   39   40 1    
    76   39  105 1    
    77   40   41 1    
    78   40   42 1    
    79   40  106 1    
    80   41  107 1    
    81   41  108 1    
    82   41  109 1    
    83   42   43 2    
    84   42   44 am   BACKBONE|DICT|INTERRES
    85   44   45 1    
    86   44  110 1    
    87   45   46 1    
    88   45   47 1    
    89   45  111 1    
    90   46  112 1    
    91   46  113 1    
    92   46  114 1    
    93   47   48 2    
    94   47   49 am   BACKBONE|DICT|INTERRES
    95   49   50 1    
    96   49  115 1    
    97   50   51 1    
    98   50   52 1    
    99   50  116 1    
   100   51  117 1    
   101   51  118 1    
   102   51  119 1    
   103   52   53 2    
   104   52   54 am   BACKBONE|DICT|INTERRES
   105   54   55 1    
   106   54  120 1    
   107   55   56 1    
   108   55   57 1    
   109   55  121 1    
   110   56  122 1    
   111   56  123 1    
   112   56  124 1    
   113   57   58 2    
   114   57   59 am   BACKBONE|DICT|INTERRES
   115   59   60 1    
   116   59  125 1    
   117   60   61 1    
   118   60   62 1    
   119   60  126 1    
   120   61  127 1    
   121   61  128 1    
   122   61  129 1    
   123   62   63 2    
   124   62   64 am   BACKBONE|DICT|INTERRES
   125   64   65 1    
   126   64  130 1    
   127   65   66 1    
   128   65   69 1    
   129   65  131 1    
   130   66   67 am   BACKBONE|DICT|INTERRES
   131   66   68 2    
   132   67  132 1    
   133   67  133 1    
   134   69   70 1    
   135   69  134 1    
   136   69  135 1    
   137   70   71 1    
   138   71  136 1    
   139   71  137 1    
@<TRIPOS>SUBSTRUCTURE
     1 UNK         1 GROUP             0       ****    0 ROOT    
