@<TRIPOS>MOLECULE
3R136
137   139    1
SMALL
USER_CHARGES


@<TRIPOS>ATOM
      1 CA         35.1581   25.1108    0.7731 C.3       0 UNK        -0.1979 
      2 C          33.9365   25.9950    0.9644 C.2       0 UNK         0.4864 
      3 O          33.9717   26.9078    1.7931 O.2       0 UNK        -0.5359 
      4 N          32.8643   25.7368    0.2079 N.am      1 UNK        -0.4318 
      5 CA         31.6084   26.4812    0.2583 C.3       1 UNK         0.0824 
      6 C6         30.5223   25.7381    1.0826 C.3       12 UNK        -0.0944 
      7 S7         29.8924   24.1845    0.3412 S.3       12 UNK        -0.2672 
      8 C8         30.6839   22.8899    1.3515 C.3       12 UNK         0.0333 
      9 C9         30.1794   22.9075    2.7866 C.ar      12 UNK        -0.0807 
     10 C10        31.0231   23.3213    3.8199 C.ar      12 UNK        -0.0894 
     11 C11        30.5523   23.4266    5.1360 C.ar      12 UNK        -0.0804 
     12 C12        29.2179   23.0995    5.3997 C.ar      12 UNK        -0.0824 
     13 C13        28.3651   22.6726    4.3764 C.ar      12 UNK        -0.0762 
     14 C14        28.8596   22.5518    3.0749 C.ar      12 UNK        -0.0782 
     15 C15        26.8937   22.4043    4.6649 C.3       12 UNK         0.0230 
     16 S16        25.8014   23.6377    3.8748 S.3       12 UNK        -0.2608 
     17 C17        26.4830   25.2153    4.4954 C.3       12 UNK        -0.0989 
     18 CA         27.4259   25.8803    3.4556 C.3       5 UNK         0.0716 
     19 N          26.7429   26.2716    2.2165 N.am      5 UNK        -0.4135 
     20 C          25.8641   27.2587    2.0037 C.2       4 UNK         0.5031 
     21 O          25.5677   28.1060    2.8504 O.2       4 UNK        -0.5229 
     22 CA         25.1714   27.2886    0.6208 C.3       4 UNK         0.0329 
     23 CB         24.6507   28.6872    0.2482 C.3       4 UNK        -0.2001 
     24 N          25.9907   26.8001   -0.4933 N.am      4 UNK        -0.4303 
     25 C          26.2673   25.5275   -0.7979 C.2       3 UNK         0.5044 
     26 O          25.9209   24.5782   -0.0965 O.2       3 UNK        -0.5152 
     27 CA         27.0887   25.2607   -2.0752 C.3       3 UNK         0.0319 
     28 CB         26.1783   25.1958   -3.3166 C.3       3 UNK        -0.2001 
     29 N          28.2216   26.1771   -2.2800 N.am      3 UNK        -0.4354 
     30 C          28.2171   27.4971   -2.5234 C.2       2 UNK         0.4964 
     31 O          27.1888   28.1603   -2.6676 O.2       2 UNK        -0.5047 
     32 CA         29.5908   28.1950   -2.5238 C.3       2 UNK         0.0288 
     33 CB         29.4750   29.7272   -2.6213 C.3       2 UNK        -0.2113 
     34 N          30.3163   27.8540   -1.2980 N.am      2 UNK        -0.4145 
     35 C          31.1453   26.8103   -1.1691 C.2       1 UNK         0.5006 
     36 O          31.4850   26.0867   -2.1096 O.2       1 UNK        -0.5103 
     37 C          28.3029   26.9734    4.0961 C.2       5 UNK         0.5055 
     38 O          29.5237   26.8280    4.1087 O.2       5 UNK        -0.5220 
     39 N          27.6743   28.0166    4.6457 N.am      6 UNK        -0.4450 
     40 CA         28.3324   29.1223    5.3417 C.3       6 UNK         0.0367 
     41 CB         27.6430   29.3359    6.6991 C.3       6 UNK        -0.1929 
     42 C          28.3054   30.4230    4.5255 C.2       6 UNK         0.5070 
     43 O          29.1656   31.2775    4.7421 O.2       6 UNK        -0.5237 
     44 N          27.3306   30.5785    3.6175 N.am      7 UNK        -0.4739 
     45 CA         27.1970   31.7711    2.7803 C.3       7 UNK         0.0276 
     46 CB         25.7606   31.8732    2.2468 C.3       7 UNK        -0.1927 
     47 C          28.2248   31.7371    1.6397 C.2       7 UNK         0.5013 
     48 O          28.2299   30.7795    0.8629 O.2       7 UNK        -0.5193 
     49 N          29.0787   32.7723    1.5859 N.am      8 UNK        -0.4253 
     50 CA         30.1959   32.9588    0.6462 C.3       8 UNK         0.0242 
     51 CB         29.6648   33.2681   -0.7698 C.3       8 UNK        -0.2000 
     52 C          31.2150   31.7985    0.6679 C.2       8 UNK         0.4948 
     53 O          31.7673   31.4412   -0.3743 O.2       8 UNK        -0.5275 
     54 N          31.4278   31.2203    1.8555 N.am      9 UNK        -0.4246 
     55 CA         32.2533   30.0386    2.0794 C.3       9 UNK         0.0261 
     56 CB         31.4391   29.0563    2.9362 C.3       9 UNK        -0.1959 
     57 C          33.5532   30.3972    2.8054 C.2       9 UNK         0.5033 
     58 O          33.6090   31.4001    3.5222 O.2       9 UNK        -0.5390 
     59 N          34.5532   29.5233    2.6488 N.am      10 UNK        -0.4215 
     60 CA         35.7417   29.4652    3.5007 C.3       10 UNK         0.0240 
     61 CB         36.9233   28.9064    2.6910 C.3       10 UNK        -0.1982 
     62 C          35.4678   28.5888    4.7356 C.2       10 UNK         0.4970 
     63 O          35.9963   28.8735    5.8106 O.2       10 UNK        -0.4916 
     64 N          34.6410   27.5498    4.5536 N.am      11 UNK        -0.4279 
     65 CA         34.1102   26.6680    5.5977 C.3       11 UNK         0.1003 
     66 C          33.2432   27.4240    6.6452 C.2       11 UNK         0.5709 
     67 N          33.2877   27.0092    7.9041 N.am      11 UNK        -0.7358 
     68 O          32.5137   28.3598    6.3238 O.2       11 UNK        -0.4999 
     69 C69        33.3307   25.5024    4.9383 C.3       12 UNK        -0.0954 
     70 S70        33.2153   24.0176    5.9915 S.3       12 UNK        -0.2268 
     71 C71        31.4157   23.9303    6.2981 C.3       12 UNK         0.0203 
     72 H72        36.0102   25.7132    0.4598 H         1 UNK         0.0888 
     73 H73        35.4136   24.6202    1.7119 H         1 UNK         0.0888 
     74 H74        34.9899   24.3401    0.0212 H         1 UNK         0.0888 
     75 H75        32.8979   25.0257   -0.5107 H         1 UNK         0.3017 
     76 H76        31.7904   27.4407    0.7369 H         1 UNK         0.0873 
     77 H77        30.9026   25.5410    2.0852 H         1 UNK         0.0745 
     78 H78        29.6647   26.3957    1.2316 H         1 UNK         0.0745 
     79 H79        30.4716   21.9160    0.9084 H         1 UNK         0.0705 
     80 H80        31.7669   23.0172    1.3121 H         1 UNK         0.0705 
     81 H81        32.0398   23.5864    3.5753 H         1 UNK         0.1334 
     82 H82        28.8348   23.2028    6.4059 H         1 UNK         0.1417 
     83 H83        28.1984   22.2466    2.2747 H         1 UNK         0.1562 
     84 H84        26.7025   22.3974    5.7391 H         1 UNK         0.0748 
     85 H85        26.6298   21.4106    4.3003 H         1 UNK         0.0748 
     86 H86        27.0022   25.0274    5.4372 H         1 UNK         0.0940 
     87 H87        25.6513   25.8778    4.7408 H         1 UNK         0.0940 
     88 H88        28.1372   25.1249    3.1279 H         1 UNK         0.0703 
     89 H89        26.8502   25.6108    1.4562 H         1 UNK         0.3081 
     90 H90        24.3044   26.6310    0.7097 H         1 UNK         0.0719 
     91 H91        24.0163   29.1036    1.0317 H         1 UNK         0.0809 
     92 H92        25.4744   29.3804    0.0751 H         1 UNK         0.0809 
     93 H93        24.0510   28.6539   -0.6616 H         1 UNK         0.0809 
     94 H94        26.3315   27.5024   -1.1456 H         1 UNK         0.2990 
     95 H95        27.5368   24.2735   -1.9504 H         1 UNK         0.0690 
     96 H96        26.7456   24.9376   -4.2108 H         1 UNK         0.0788 
     97 H97        25.6699   26.1421   -3.5033 H         1 UNK         0.0788 
     98 H98        25.4066   24.4350   -3.1916 H         1 UNK         0.0788 
     99 H99        29.1300   25.7471   -2.1572 H         1 UNK         0.2993 
    100 H100       30.1394   27.8419   -3.3999 H         1 UNK         0.0949 
    101 H101       28.8997   30.1373   -1.7905 H         1 UNK         0.0767 
    102 H102       30.4566   30.2017   -2.6134 H         1 UNK         0.0767 
    103 H103       28.9771   30.0261   -3.5446 H         1 UNK         0.0767 
    104 H104       30.0663   28.3920   -0.4798 H         1 UNK         0.3013 
    105 H105       26.6760   28.0944    4.4789 H         1 UNK         0.3121 
    106 H106       29.3806   28.8807    5.5327 H         1 UNK         0.0774 
    107 H107       26.5892   29.5919    6.5828 H         1 UNK         0.0815 
    108 H108       27.7052   28.4411    7.3186 H         1 UNK         0.0815 
    109 H109       28.1174   30.1465    7.2541 H         1 UNK         0.0815 
    110 H110       26.6942   29.8134    3.4259 H         1 UNK         0.2987 
    111 H111       27.3787   32.6531    3.3990 H         1 UNK         0.0949 
    112 H112       25.0419   31.9702    3.0606 H         1 UNK         0.0806 
    113 H113       25.6431   32.7454    1.6024 H         1 UNK         0.0806 
    114 H114       25.4860   30.9971    1.6643 H         1 UNK         0.0806 
    115 H115       28.9900   33.4901    2.2925 H         1 UNK         0.3010 
    116 H116       30.7428   33.8382    0.9895 H         1 UNK         0.0829 
    117 H117       29.1156   32.4254   -1.1884 H         1 UNK         0.0813 
    118 H118       28.9980   34.1302   -0.7627 H         1 UNK         0.0813 
    119 H119       30.4810   33.4982   -1.4557 H         1 UNK         0.0813 
    120 H120       30.9840   31.6102    2.6759 H         1 UNK         0.3038 
    121 H121       32.5060   29.5673    1.1281 H         1 UNK         0.0769 
    122 H122       30.4835   28.8179    2.4690 H         1 UNK         0.0811 
    123 H123       31.2310   29.4645    3.9260 H         1 UNK         0.0811 
    124 H124       31.9688   28.1162    3.0907 H         1 UNK         0.0811 
    125 H125       34.3788   28.6943    2.0829 H         1 UNK         0.3204 
    126 H126       36.0013   30.4691    3.8438 H         1 UNK         0.0748 
    127 H127       36.7233   27.8988    2.3236 H         1 UNK         0.0771 
    128 H128       37.1463   29.5379    1.8307 H         1 UNK         0.0771 
    129 H129       37.8262   28.8592    3.3014 H         1 UNK         0.0771 
    130 H130       34.2874   27.3753    3.6185 H         1 UNK         0.2980 
    131 H131       34.9803   26.2561    6.1128 H         1 UNK         0.0545 
    132 H132       33.8639   26.2270    8.1727 H         1 UNK         0.3459 
    133 H133       32.7264   27.4811    8.5951 H         1 UNK         0.3459 
    134 H134       33.8435   25.1804    4.0308 H         1 UNK         0.0616 
    135 H135       32.3393   25.8289    4.6157 H         1 UNK         0.0616 
    136 H136       31.2634   23.2738    7.1559 H         1 UNK         0.0634 
    137 H137       31.0611   24.9173    6.5995 H         1 UNK         0.0634 
@<TRIPOS>BOND
     1    1    2 1    
     2    1   72 1    
     3    1   73 1    
     4    1   74 1    
     5    2    3 2    
     6    2    4 am   BACKBONE|DICT|INTERRES
     7    4    5 1    
     8    4   75 1    
     9    5    6 1    
    10    5   35 1    
    11    5   76 1    
    12    6    7 1    
    13    6   77 1    
    14    6   78 1    
    15    7    8 1    
    16    8    9 1    
    17    8   79 1    
    18    8   80 1    
    19    9   10 ar   
    20    9   14 ar   
    21   10   11 ar   
    22   10   81 1    
    23   11   12 ar   
    24   11   71 1    
    25   12   13 ar   
    26   12   82 1    
    27   13   14 ar   
    28   13   15 1    
    29   14   83 1    
    30   15   16 1    
    31   15   84 1    
    32   15   85 1    
    33   16   17 1    
    34   17   18 1    
    35   17   86 1    
    36   17   87 1    
    37   18   19 1    
    38   18   37 1    
    39   18   88 1    
    40   19   20 am   BACKBONE|DICT|INTERRES
    41   19   89 1    
    42   20   21 2    
    43   20   22 1    
    44   22   23 1    
    45   22   24 1    
    46   22   90 1    
    47   23   91 1    
    48   23   92 1    
    49   23   93 1    
    50   24   25 am   BACKBONE|DICT|INTERRES
    51   24   94 1    
    52   25   26 2    
    53   25   27 1    
    54   27   28 1    
    55   27   29 1    
    56   27   95 1    
    57   28   96 1    
    58   28   97 1    
    59   28   98 1    
    60   29   30 am   BACKBONE|DICT|INTERRES
    61   29   99 1    
    62   30   31 2    
    63   30   32 1    
    64   32   33 1    
    65   32   34 1    
    66   32  100 1    
    67   33  101 1    
    68   33  102 1    
    69   33  103 1    
    70   34   35 am   BACKBONE|DICT|INTERRES
    71   34  104 1    
    72   35   36 2    
    73   37   38 2    
    74   37   39 am   BACKBONE|DICT|INTERRES
    75   39   40 1    
    76   39  105 1    
    77   40   41 1    
    78   40   42 1    
    79   40  106 1    
    80   41  107 1    
    81   41  108 1    
    82   41  109 1    
    83   42   43 2    
    84   42   44 am   BACKBONE|DICT|INTERRES
    85   44   45 1    
    86   44  110 1    
    87   45   46 1    
    88   45   47 1    
    89   45  111 1    
    90   46  112 1    
    91   46  113 1    
    92   46  114 1    
    93   47   48 2    
    94   47   49 am   BACKBONE|DICT|INTERRES
    95   49   50 1    
    96   49  115 1    
    97   50   51 1    
    98   50   52 1    
    99   50  116 1    
   100   51  117 1    
   101   51  118 1    
   102   51  119 1    
   103   52   53 2    
   104   52   54 am   BACKBONE|DICT|INTERRES
   105   54   55 1    
   106   54  120 1    
   107   55   56 1    
   108   55   57 1    
   109   55  121 1    
   110   56  122 1    
   111   56  123 1    
   112   56  124 1    
   113   57   58 2    
   114   57   59 am   BACKBONE|DICT|INTERRES
   115   59   60 1    
   116   59  125 1    
   117   60   61 1    
   118   60   62 1    
   119   60  126 1    
   120   61  127 1    
   121   61  128 1    
   122   61  129 1    
   123   62   63 2    
   124   62   64 am   BACKBONE|DICT|INTERRES
   125   64   65 1    
   126   64  130 1    
   127   65   66 1    
   128   65   69 1    
   129   65  131 1    
   130   66   67 am   BACKBONE|DICT|INTERRES
   131   66   68 2    
   132   67  132 1    
   133   67  133 1    
   134   69   70 1    
   135   69  134 1    
   136   69  135 1    
   137   70   71 1    
   138   71  136 1    
   139   71  137 1    
@<TRIPOS>SUBSTRUCTURE
     1 UNK         1 GROUP             0       ****    0 ROOT    
