@<TRIPOS>MOLECULE
3R136
137   139    1
SMALL
USER_CHARGES


@<TRIPOS>ATOM
      1 CA         33.1380   25.0028   -4.3399 C.3       0 UNK        -0.1979 
      2 C          32.0715   25.2228   -3.2771 C.2       0 UNK         0.4864 
      3 O          31.6814   26.3647   -3.0323 O.2       0 UNK        -0.5359 
      4 N          31.6051   24.1396   -2.6419 N.am      1 UNK        -0.4318 
      5 CA         30.5455   24.1544   -1.6311 C.3       1 UNK         0.0824 
      6 C6         30.4978   22.8109   -0.8586 C.3       12 UNK        -0.0944 
      7 S7         29.4775   22.9178    0.6500 S.3       12 UNK        -0.2672 
      8 C8         30.7327   22.8606    1.9622 C.3       12 UNK         0.0333 
      9 C9         30.2730   23.6493    3.1765 C.ar      12 UNK        -0.0807 
     10 C10        30.8316   24.9007    3.4442 C.ar      12 UNK        -0.0894 
     11 C11        30.4214   25.6402    4.5553 C.ar      12 UNK        -0.0804 
     12 C12        29.4356   25.1227    5.3998 C.ar      12 UNK        -0.0824 
     13 C13        28.8414   23.8862    5.1219 C.ar      12 UNK        -0.0762 
     14 C14        29.2783   23.1443    4.0197 C.ar      12 UNK        -0.0782 
     15 C15        27.6994   23.3698    5.9876 C.3       12 UNK         0.0230 
     16 S16        26.0727   23.6413    5.2010 S.3       12 UNK        -0.2608 
     17 C17        26.0478   25.4576    5.0268 C.3       12 UNK        -0.0989 
     18 CA         26.3993   25.8923    3.5704 C.3       5 UNK         0.0716 
     19 N          25.2581   25.9282    2.6495 N.am      5 UNK        -0.4135 
     20 C          24.1520   26.6837    2.7536 C.2       4 UNK         0.5031 
     21 O          23.9026   27.4009    3.7234 O.2       4 UNK        -0.5229 
     22 CA         23.1488   26.6766    1.5784 C.3       4 UNK         0.0329 
     23 CB         22.9766   28.0950    1.0060 C.3       4 UNK        -0.2001 
     24 N          23.5178   25.7800    0.4820 N.am      4 UNK        -0.4303 
     25 C          23.4235   24.4440    0.4967 C.2       3 UNK         0.5044 
     26 O          22.9058   23.8058    1.4132 O.2       3 UNK        -0.5152 
     27 CA         24.0419   23.6878   -0.6968 C.3       3 UNK         0.0319 
     28 CB         22.9384   23.1859   -1.6423 C.3       3 UNK        -0.2001 
     29 N          25.0283   24.4534   -1.4752 N.am      3 UNK        -0.4354 
     30 C          26.1735   24.9630   -0.9990 C.2       2 UNK         0.4964 
     31 O          26.5041   24.9188    0.1893 O.2       2 UNK        -0.5047 
     32 CA         27.0564   25.7153   -2.0027 C.3       2 UNK         0.0288 
     33 CB         26.8065   27.2275   -1.8953 C.3       2 UNK        -0.2113 
     34 N          28.4571   25.4392   -1.6992 N.am      2 UNK        -0.4145 
     35 C          29.1819   24.4762   -2.2778 C.2       1 UNK         0.5006 
     36 O          28.8054   23.8217   -3.2549 O.2       1 UNK        -0.5103 
     37 C          27.1814   27.2160    3.4755 C.2       5 UNK         0.5055 
     38 O          27.2366   27.9920    4.4319 O.2       5 UNK        -0.5220 
     39 N          27.7701   27.4407    2.2970 N.am      6 UNK        -0.4450 
     40 CA         28.6861   28.5337    1.9959 C.3       6 UNK         0.0367 
     41 CB         27.9166   29.7037    1.3595 C.3       6 UNK        -0.1929 
     42 C          29.7686   27.9878    1.0572 C.2       6 UNK         0.5070 
     43 O          29.5384   26.9778    0.3871 O.2       6 UNK        -0.5237 
     44 N          30.9205   28.6636    1.0211 N.am      7 UNK        -0.4739 
     45 CA         32.0637   28.3153    0.1724 C.3       7 UNK         0.0276 
     46 CB         32.7945   27.0673    0.7071 C.3       7 UNK        -0.1927 
     47 C          33.0292   29.5000    0.0472 C.2       7 UNK         0.5013 
     48 O          33.4727   29.8090   -1.0590 O.2       7 UNK        -0.5193 
     49 N          33.3213   30.1542    1.1772 N.am      8 UNK        -0.4253 
     50 CA         34.1729   31.3349    1.2889 C.3       8 UNK         0.0242 
     51 CB         35.6523   30.9097    1.3490 C.3       8 UNK        -0.2000 
     52 C          33.7703   32.0905    2.5587 C.2       8 UNK         0.4948 
     53 O          33.1536   31.4952    3.4451 O.2       8 UNK        -0.5275 
     54 N          34.1566   33.3697    2.6521 N.am      9 UNK        -0.4246 
     55 CA         33.8456   34.2588    3.7812 C.3       9 UNK         0.0261 
     56 CB         34.3248   35.6823    3.4518 C.3       9 UNK        -0.1959 
     57 C          34.4167   33.8007    5.1382 C.2       9 UNK         0.5033 
     58 O          33.8544   34.1500    6.1768 O.2       9 UNK        -0.5390 
     59 N          35.5096   33.0262    5.1082 N.am      10 UNK        -0.4215 
     60 CA         36.1362   32.4161    6.2831 C.3       10 UNK         0.0240 
     61 CB         37.5989   32.0807    5.9448 C.3       10 UNK        -0.1982 
     62 C          35.4029   31.1592    6.7929 C.2       10 UNK         0.4970 
     63 O          35.6728   30.7346    7.9174 O.2       10 UNK        -0.4916 
     64 N          34.5256   30.5675    5.9708 N.am      11 UNK        -0.4279 
     65 CA         33.7456   29.3691    6.3018 C.3       11 UNK         0.1003 
     66 C          32.6059   29.6777    7.3120 C.2       11 UNK         0.5709 
     67 N          32.3393   28.7748    8.2459 N.am      11 UNK        -0.7358 
     68 O          31.9434   30.7108    7.2375 O.2       11 UNK        -0.4999 
     69 C69        33.2174   28.7066    5.0048 C.3       12 UNK        -0.0954 
     70 S70        32.7756   26.9507    5.2106 S.3       12 UNK        -0.2268 
     71 C71        31.0070   27.0210    4.7987 C.3       12 UNK         0.0203 
     72 H72        33.3993   23.9499   -4.4448 H         1 UNK         0.0888 
     73 H73        34.0429   25.5525   -4.0821 H         1 UNK         0.0888 
     74 H74        32.7841   25.3622   -5.3058 H         1 UNK         0.0888 
     75 H75        31.9406   23.2260   -2.9113 H         1 UNK         0.3017 
     76 H76        30.7906   24.9474   -0.9213 H         1 UNK         0.0873 
     77 H77        31.5064   22.4986   -0.5840 H         1 UNK         0.0745 
     78 H78        30.1051   22.0103   -1.4888 H         1 UNK         0.0745 
     79 H79        30.9237   21.8227    2.2382 H         1 UNK         0.0705 
     80 H80        31.6774   23.2637    1.5937 H         1 UNK         0.0705 
     81 H81        31.5870   25.3063    2.7865 H         1 UNK         0.1334 
     82 H82        29.1033   25.7013    6.2508 H         1 UNK         0.1417 
     83 H83        28.8215   22.1891    3.7980 H         1 UNK         0.1562 
     84 H84        27.7114   23.8482    6.9683 H         1 UNK         0.0748 
     85 H85        27.8317   22.3021    6.1688 H         1 UNK         0.0748 
     86 H86        26.7425   25.8747    5.7562 H         1 UNK         0.0940 
     87 H87        25.0696   25.8240    5.3366 H         1 UNK         0.0940 
     88 H88        27.0791   25.1446    3.1567 H         1 UNK         0.0703 
     89 H89        25.4034   25.4142    1.7865 H         1 UNK         0.3081 
     90 H90        22.1870   26.3503    1.9797 H         1 UNK         0.0719 
     91 H91        22.6392   28.7912    1.7751 H         1 UNK         0.0809 
     92 H92        23.9131   28.4840    0.6038 H         1 UNK         0.0809 
     93 H93        22.2330   28.1150    0.2090 H         1 UNK         0.0809 
     94 H94        23.9539   26.2078   -0.3213 H         1 UNK         0.2990 
     95 H95        24.5599   22.8189   -0.2855 H         1 UNK         0.0690 
     96 H96        23.3475   22.5574   -2.4337 H         1 UNK         0.0788 
     97 H97        22.4018   24.0120   -2.1108 H         1 UNK         0.0788 
     98 H98        22.2043   22.5850   -1.1032 H         1 UNK         0.0788 
     99 H99        24.8250   24.5643   -2.4587 H         1 UNK         0.2993 
    100 H100       26.8194   25.3906   -3.0183 H         1 UNK         0.0949 
    101 H101       26.9718   27.5866   -0.8800 H         1 UNK         0.0767 
    102 H102       27.4664   27.7865   -2.5592 H         1 UNK         0.0767 
    103 H103       25.7807   27.4774   -2.1689 H         1 UNK         0.0767 
    104 H104       28.8391   25.9174   -0.8827 H         1 UNK         0.3013 
    105 H105       27.7355   26.7249    1.5785 H         1 UNK         0.3121 
    106 H106       29.1650   28.8776    2.9147 H         1 UNK         0.0774 
    107 H107       27.4455   29.4203    0.4191 H         1 UNK         0.0815 
    108 H108       27.1353   30.0699    2.0258 H         1 UNK         0.0815 
    109 H109       28.5815   30.5424    1.1502 H         1 UNK         0.0815 
    110 H110       30.9966   29.5262    1.5418 H         1 UNK         0.2987 
    111 H111       31.6922   28.0946   -0.8314 H         1 UNK         0.0949 
    112 H112       32.1611   26.1829    0.6543 H         1 UNK         0.0806 
    113 H113       33.6859   26.8542    0.1155 H         1 UNK         0.0806 
    114 H114       33.1096   27.1946    1.7435 H         1 UNK         0.0806 
    115 H115       32.9156   29.8655    2.0581 H         1 UNK         0.3010 
    116 H116       34.0055   31.9867    0.4285 H         1 UNK         0.0829 
    117 H117       36.3108   31.7752    1.4309 H         1 UNK         0.0813 
    118 H118       35.9462   30.3689    0.4492 H         1 UNK         0.0813 
    119 H119       35.8509   30.2632    2.2051 H         1 UNK         0.0813 
    120 H120       34.6699   33.7797    1.8842 H         1 UNK         0.3038 
    121 H121       32.7587   34.2820    3.8862 H         1 UNK         0.0769 
    122 H122       33.8464   36.0648    2.5499 H         1 UNK         0.0811 
    123 H123       35.4047   35.7212    3.3035 H         1 UNK         0.0811 
    124 H124       34.0824   36.3730    4.2609 H         1 UNK         0.0811 
    125 H125       35.9129   32.8070    4.2092 H         1 UNK         0.3204 
    126 H126       36.1344   33.1450    7.0966 H         1 UNK         0.0748 
    127 H127       38.1134   31.6579    6.8090 H         1 UNK         0.0771 
    128 H128       37.6706   31.3529    5.1353 H         1 UNK         0.0771 
    129 H129       38.1520   32.9718    5.6466 H         1 UNK         0.0771 
    130 H130       34.2786   31.0179    5.0973 H         1 UNK         0.2980 
    131 H131       34.4364   28.6683    6.7756 H         1 UNK         0.0545 
    132 H132       32.8609   27.9139    8.2983 H         1 UNK         0.3459 
    133 H133       31.5969   28.9532    8.9035 H         1 UNK         0.3459 
    134 H134       33.9868   28.7375    4.2313 H         1 UNK         0.0616 
    135 H135       32.3725   29.2683    4.6033 H         1 UNK         0.0616 
    136 H136       30.4715   27.5443    5.5926 H         1 UNK         0.0634 
    137 H137       30.8784   27.6105    3.8922 H         1 UNK         0.0634 
@<TRIPOS>BOND
     1    1    2 1    
     2    1   72 1    
     3    1   73 1    
     4    1   74 1    
     5    2    3 2    
     6    2    4 am   BACKBONE|DICT|INTERRES
     7    4    5 1    
     8    4   75 1    
     9    5    6 1    
    10    5   35 1    
    11    5   76 1    
    12    6    7 1    
    13    6   77 1    
    14    6   78 1    
    15    7    8 1    
    16    8    9 1    
    17    8   79 1    
    18    8   80 1    
    19    9   10 ar   
    20    9   14 ar   
    21   10   11 ar   
    22   10   81 1    
    23   11   12 ar   
    24   11   71 1    
    25   12   13 ar   
    26   12   82 1    
    27   13   14 ar   
    28   13   15 1    
    29   14   83 1    
    30   15   16 1    
    31   15   84 1    
    32   15   85 1    
    33   16   17 1    
    34   17   18 1    
    35   17   86 1    
    36   17   87 1    
    37   18   19 1    
    38   18   37 1    
    39   18   88 1    
    40   19   20 am   BACKBONE|DICT|INTERRES
    41   19   89 1    
    42   20   21 2    
    43   20   22 1    
    44   22   23 1    
    45   22   24 1    
    46   22   90 1    
    47   23   91 1    
    48   23   92 1    
    49   23   93 1    
    50   24   25 am   BACKBONE|DICT|INTERRES
    51   24   94 1    
    52   25   26 2    
    53   25   27 1    
    54   27   28 1    
    55   27   29 1    
    56   27   95 1    
    57   28   96 1    
    58   28   97 1    
    59   28   98 1    
    60   29   30 am   BACKBONE|DICT|INTERRES
    61   29   99 1    
    62   30   31 2    
    63   30   32 1    
    64   32   33 1    
    65   32   34 1    
    66   32  100 1    
    67   33  101 1    
    68   33  102 1    
    69   33  103 1    
    70   34   35 am   BACKBONE|DICT|INTERRES
    71   34  104 1    
    72   35   36 2    
    73   37   38 2    
    74   37   39 am   BACKBONE|DICT|INTERRES
    75   39   40 1    
    76   39  105 1    
    77   40   41 1    
    78   40   42 1    
    79   40  106 1    
    80   41  107 1    
    81   41  108 1    
    82   41  109 1    
    83   42   43 2    
    84   42   44 am   BACKBONE|DICT|INTERRES
    85   44   45 1    
    86   44  110 1    
    87   45   46 1    
    88   45   47 1    
    89   45  111 1    
    90   46  112 1    
    91   46  113 1    
    92   46  114 1    
    93   47   48 2    
    94   47   49 am   BACKBONE|DICT|INTERRES
    95   49   50 1    
    96   49  115 1    
    97   50   51 1    
    98   50   52 1    
    99   50  116 1    
   100   51  117 1    
   101   51  118 1    
   102   51  119 1    
   103   52   53 2    
   104   52   54 am   BACKBONE|DICT|INTERRES
   105   54   55 1    
   106   54  120 1    
   107   55   56 1    
   108   55   57 1    
   109   55  121 1    
   110   56  122 1    
   111   56  123 1    
   112   56  124 1    
   113   57   58 2    
   114   57   59 am   BACKBONE|DICT|INTERRES
   115   59   60 1    
   116   59  125 1    
   117   60   61 1    
   118   60   62 1    
   119   60  126 1    
   120   61  127 1    
   121   61  128 1    
   122   61  129 1    
   123   62   63 2    
   124   62   64 am   BACKBONE|DICT|INTERRES
   125   64   65 1    
   126   64  130 1    
   127   65   66 1    
   128   65   69 1    
   129   65  131 1    
   130   66   67 am   BACKBONE|DICT|INTERRES
   131   66   68 2    
   132   67  132 1    
   133   67  133 1    
   134   69   70 1    
   135   69  134 1    
   136   69  135 1    
   137   70   71 1    
   138   71  136 1    
   139   71  137 1    
@<TRIPOS>SUBSTRUCTURE
     1 UNK         1 GROUP             0       ****    0 ROOT    
