@<TRIPOS>MOLECULE
3R136
137   139    1
SMALL
USER_CHARGES


@<TRIPOS>ATOM
      1 CA         30.0742   28.2247   -0.9373 C.3       0 UNK        -0.1979 
      2 C          29.4055   26.9062   -0.5807 C.2       0 UNK         0.4864 
      3 O          28.2028   26.8827   -0.3153 O.2       0 UNK        -0.5359 
      4 N          30.1719   25.8070   -0.5927 N.am      1 UNK        -0.4318 
      5 CA         29.7490   24.4481   -0.2257 C.3       1 UNK         0.0824 
      6 C6         30.8936   23.4081   -0.3804 C.3       12 UNK        -0.0944 
      7 S7         32.5106   23.9744    0.2520 S.3       12 UNK        -0.2672 
      8 C8         32.5958   23.1525    1.8710 C.3       12 UNK         0.0333 
      9 C9         31.6191   23.7606    2.8651 C.ar      12 UNK        -0.0807 
     10 C10        31.8203   25.0616    3.3348 C.ar      12 UNK        -0.0894 
     11 C11        30.9504   25.6212    4.2740 C.ar      12 UNK        -0.0804 
     12 C12        29.8702   24.8672    4.7427 C.ar      12 UNK        -0.0824 
     13 C13        29.6471   23.5703    4.2659 C.ar      12 UNK        -0.0762 
     14 C14        30.5266   23.0219    3.3279 C.ar      12 UNK        -0.0782 
     15 C15        28.4704   22.7481    4.7739 C.3       12 UNK         0.0230 
     16 S16        27.0332   22.8434    3.6566 S.3       12 UNK        -0.2608 
     17 C17        26.4652   24.5524    3.9424 C.3       12 UNK        -0.0989 
     18 CA         26.6599   25.4473    2.6861 C.3       5 UNK         0.0716 
     19 N          25.7708   25.0820    1.5765 N.am      5 UNK        -0.4135 
     20 C          24.4337   25.2024    1.5608 C.2       4 UNK         0.5031 
     21 O          23.7653   25.6214    2.5083 O.2       4 UNK        -0.5229 
     22 CA         23.7257   24.7800    0.2587 C.3       4 UNK         0.0329 
     23 CB         22.2181   25.1131    0.2516 C.3       4 UNK        -0.2001 
     24 N          24.3763   25.3190   -0.9392 N.am      4 UNK        -0.4303 
     25 C          24.6116   26.6046   -1.2458 C.2       3 UNK         0.5044 
     26 O          24.2556   27.5550   -0.5479 O.2       3 UNK        -0.5152 
     27 CA         25.3869   26.8604   -2.5549 C.3       3 UNK         0.0319 
     28 CB         25.9717   28.2832   -2.6328 C.3       3 UNK        -0.2001 
     29 N          26.4700   25.8891   -2.7354 N.am      3 UNK        -0.4354 
     30 C          26.3373   24.6800   -3.2999 C.2       2 UNK         0.4964 
     31 O          25.2755   24.2665   -3.7653 O.2       2 UNK        -0.5047 
     32 CA         27.5655   23.7539   -3.3202 C.3       2 UNK         0.0288 
     33 CB         28.1849   23.7158   -4.7270 C.3       2 UNK        -0.2113 
     34 N          28.6036   24.1156   -2.3533 N.am      2 UNK        -0.4145 
     35 C          28.5095   23.9882   -1.0208 C.2       1 UNK         0.5006 
     36 O          27.5044   23.5857   -0.4306 O.2       1 UNK        -0.5103 
     37 C          26.5757   26.9557    3.0074 C.2       5 UNK         0.5055 
     38 O          26.2811   27.3351    4.1442 O.2       5 UNK        -0.5220 
     39 N          26.8556   27.7951    2.0011 N.am      6 UNK        -0.4450 
     40 CA         27.1293   29.2207    2.1905 C.3       6 UNK         0.0367 
     41 CB         27.0108   29.9478    0.8420 C.3       6 UNK        -0.1929 
     42 C          28.5312   29.3975    2.8002 C.2       6 UNK         0.5070 
     43 O          29.3707   28.5100    2.6502 O.2       6 UNK        -0.5237 
     44 N          28.7575   30.5336    3.4743 N.am      7 UNK        -0.4739 
     45 CA         29.9188   30.8060    4.3369 C.3       7 UNK         0.0276 
     46 CB         29.7850   32.2190    4.9286 C.3       7 UNK        -0.1927 
     47 C          31.3128   30.6338    3.7042 C.2       7 UNK         0.5013 
     48 O          32.2606   30.3676    4.4452 O.2       7 UNK        -0.5193 
     49 N          31.4104   30.7959    2.3730 N.am      8 UNK        -0.4253 
     50 CA         32.6209   30.6568    1.5469 C.3       8 UNK         0.0242 
     51 CB         33.0457   29.1749    1.4690 C.3       8 UNK        -0.2000 
     52 C          33.7579   31.5744    2.0368 C.2       8 UNK         0.4948 
     53 O          34.8811   31.1157    2.2595 O.2       8 UNK        -0.5275 
     54 N          33.4050   32.8455    2.2799 N.am      9 UNK        -0.4246 
     55 CA         34.1512   33.8703    3.0210 C.3       9 UNK         0.0261 
     56 CB         35.5231   34.1843    2.3887 C.3       9 UNK        -0.1959 
     57 C          34.2611   33.5304    4.5183 C.2       9 UNK         0.5033 
     58 O          33.7431   34.2865    5.3413 O.2       9 UNK        -0.5390 
     59 N          34.8904   32.3932    4.8342 N.am      10 UNK        -0.4215 
     60 CA         35.0153   31.8136    6.1678 C.3       10 UNK         0.0240 
     61 CB         35.8912   32.7001    7.0826 C.3       10 UNK        -0.1982 
     62 C          35.5863   30.3959    6.0327 C.2       10 UNK         0.4970 
     63 O          36.8014   30.2214    6.1512 O.2       10 UNK        -0.4916 
     64 N          34.7190   29.4107    5.7651 N.am      11 UNK        -0.4279 
     65 CA         35.0740   27.9799    5.7763 C.3       11 UNK         0.1003 
     66 C          35.5781   27.4623    7.1567 C.2       11 UNK         0.5709 
     67 N          36.3638   26.3931    7.1659 N.am      11 UNK        -0.7358 
     68 O          35.2474   27.9976    8.2141 O.2       11 UNK        -0.4999 
     69 C69        33.9451   27.0833    5.2008 C.3       12 UNK        -0.0954 
     70 S70        32.3643   27.1586    6.1153 S.3       12 UNK        -0.2268 
     71 C71        31.1584   27.0493    4.7582 C.3       12 UNK         0.0203 
     72 H72        29.5185   28.7256   -1.7294 H         1 UNK         0.0888 
     73 H73        30.0941   28.8784   -0.0664 H         1 UNK         0.0888 
     74 H74        31.0993   28.0828   -1.2789 H         1 UNK         0.0888 
     75 H75        31.1573   25.8951   -0.7987 H         1 UNK         0.3017 
     76 H76        29.4664   24.4851    0.8282 H         1 UNK         0.0873 
     77 H77        30.6192   22.4718    0.1093 H         1 UNK         0.0745 
     78 H78        31.0513   23.1565   -1.4310 H         1 UNK         0.0745 
     79 H79        32.4228   22.0822    1.7479 H         1 UNK         0.0705 
     80 H80        33.6089   23.2544    2.2625 H         1 UNK         0.0705 
     81 H81        32.6552   25.6387    2.9629 H         1 UNK         0.1334 
     82 H82        29.2008   25.2965    5.4750 H         1 UNK         0.1417 
     83 H83        30.3607   22.0169    2.9638 H         1 UNK         0.1562 
     84 H84        28.1803   23.0672    5.7763 H         1 UNK         0.0748 
     85 H85        28.7699   21.7032    4.8681 H         1 UNK         0.0748 
     86 H86        27.0015   24.9591    4.7998 H         1 UNK         0.0940 
     87 H87        25.4186   24.5276    4.2487 H         1 UNK         0.0940 
     88 H88        27.6778   25.2904    2.3249 H         1 UNK         0.0703 
     89 H89        26.2349   24.7048    0.7564 H         1 UNK         0.3081 
     90 H90        23.8235   23.6949    0.1994 H         1 UNK         0.0719 
     91 H91        22.0401   26.1848    0.3473 H         1 UNK         0.0809 
     92 H92        21.7410   24.7747   -0.6680 H         1 UNK         0.0809 
     93 H93        21.7056   24.6233    1.0805 H         1 UNK         0.0809 
     94 H94        24.7026   24.6299   -1.6047 H         1 UNK         0.2990 
     95 H95        24.6701   26.7562   -3.3721 H         1 UNK         0.0690 
     96 H96        26.5001   28.4442   -3.5724 H         1 UNK         0.0788 
     97 H97        26.6693   28.4767   -1.8184 H         1 UNK         0.0788 
     98 H98        25.1842   29.0355   -2.5728 H         1 UNK         0.0788 
     99 H99        27.3455   26.1205   -2.2842 H         1 UNK         0.2993 
    100 H100       27.2135   22.7498   -3.0728 H         1 UNK         0.0949 
    101 H101       27.4460   23.4156   -5.4716 H         1 UNK         0.0767 
    102 H102       28.5701   24.6918   -5.0255 H         1 UNK         0.0767 
    103 H103       29.0045   22.9989   -4.7811 H         1 UNK         0.0767 
    104 H104       29.4612   24.4892   -2.7341 H         1 UNK         0.3013 
    105 H105       27.1742   27.4009    1.1168 H         1 UNK         0.3121 
    106 H106       26.3890   29.6348    2.8783 H         1 UNK         0.0774 
    107 H107       27.7546   29.5996    0.1268 H         1 UNK         0.0815 
    108 H108       27.1509   31.0226    0.9612 H         1 UNK         0.0815 
    109 H109       26.0265   29.7958    0.3981 H         1 UNK         0.0815 
    110 H110       28.0133   31.2159    3.5125 H         1 UNK         0.2987 
    111 H111       29.8699   30.0904    5.1604 H         1 UNK         0.0949 
    112 H112       29.7668   32.9823    4.1498 H         1 UNK         0.0806 
    113 H113       28.8751   32.3190    5.5206 H         1 UNK         0.0806 
    114 H114       30.6232   32.4490    5.5888 H         1 UNK         0.0806 
    115 H115       30.5571   31.0094    1.8769 H         1 UNK         0.3010 
    116 H116       32.3595   30.9847    0.5398 H         1 UNK         0.0829 
    117 H117       33.4138   28.8165    2.4293 H         1 UNK         0.0813 
    118 H118       32.2162   28.5331    1.1737 H         1 UNK         0.0813 
    119 H119       33.8461   29.0352    0.7417 H         1 UNK         0.0813 
    120 H120       32.4464   33.0931    2.0764 H         1 UNK         0.3038 
    121 H121       33.5511   34.7791    2.9486 H         1 UNK         0.0769 
    122 H122       36.2130   33.3423    2.4444 H         1 UNK         0.0811 
    123 H123       35.9992   35.0219    2.8999 H         1 UNK         0.0811 
    124 H124       35.4197   34.4619    1.3398 H         1 UNK         0.0811 
    125 H125       35.2022   31.8077    4.0614 H         1 UNK         0.3204 
    126 H126       34.0186   31.7351    6.6073 H         1 UNK         0.0748 
    127 H127       36.0705   32.2122    8.0417 H         1 UNK         0.0771 
    128 H128       36.8633   32.9063    6.6332 H         1 UNK         0.0771 
    129 H129       35.4140   33.6557    7.2981 H         1 UNK         0.0771 
    130 H130       33.7439   29.6345    5.5890 H         1 UNK         0.2980 
    131 H131       35.9209   27.8857    5.0937 H         1 UNK         0.0545 
    132 H132       36.6921   26.0357    8.0494 H         1 UNK         0.3459 
    133 H133       36.6369   25.9376    6.3092 H         1 UNK         0.3459 
    134 H134       33.7708   27.3714    4.1654 H         1 UNK         0.0616 
    135 H135       34.2644   26.0405    5.1609 H         1 UNK         0.0616 
    136 H136       31.4837   27.6769    3.9286 H         1 UNK         0.0634 
    137 H137       30.2111   27.4680    5.1005 H         1 UNK         0.0634 
@<TRIPOS>BOND
     1    1    2 1    
     2    1   72 1    
     3    1   73 1    
     4    1   74 1    
     5    2    3 2    
     6    2    4 am   BACKBONE|DICT|INTERRES
     7    4    5 1    
     8    4   75 1    
     9    5    6 1    
    10    5   35 1    
    11    5   76 1    
    12    6    7 1    
    13    6   77 1    
    14    6   78 1    
    15    7    8 1    
    16    8    9 1    
    17    8   79 1    
    18    8   80 1    
    19    9   10 ar   
    20    9   14 ar   
    21   10   11 ar   
    22   10   81 1    
    23   11   12 ar   
    24   11   71 1    
    25   12   13 ar   
    26   12   82 1    
    27   13   14 ar   
    28   13   15 1    
    29   14   83 1    
    30   15   16 1    
    31   15   84 1    
    32   15   85 1    
    33   16   17 1    
    34   17   18 1    
    35   17   86 1    
    36   17   87 1    
    37   18   19 1    
    38   18   37 1    
    39   18   88 1    
    40   19   20 am   BACKBONE|DICT|INTERRES
    41   19   89 1    
    42   20   21 2    
    43   20   22 1    
    44   22   23 1    
    45   22   24 1    
    46   22   90 1    
    47   23   91 1    
    48   23   92 1    
    49   23   93 1    
    50   24   25 am   BACKBONE|DICT|INTERRES
    51   24   94 1    
    52   25   26 2    
    53   25   27 1    
    54   27   28 1    
    55   27   29 1    
    56   27   95 1    
    57   28   96 1    
    58   28   97 1    
    59   28   98 1    
    60   29   30 am   BACKBONE|DICT|INTERRES
    61   29   99 1    
    62   30   31 2    
    63   30   32 1    
    64   32   33 1    
    65   32   34 1    
    66   32  100 1    
    67   33  101 1    
    68   33  102 1    
    69   33  103 1    
    70   34   35 am   BACKBONE|DICT|INTERRES
    71   34  104 1    
    72   35   36 2    
    73   37   38 2    
    74   37   39 am   BACKBONE|DICT|INTERRES
    75   39   40 1    
    76   39  105 1    
    77   40   41 1    
    78   40   42 1    
    79   40  106 1    
    80   41  107 1    
    81   41  108 1    
    82   41  109 1    
    83   42   43 2    
    84   42   44 am   BACKBONE|DICT|INTERRES
    85   44   45 1    
    86   44  110 1    
    87   45   46 1    
    88   45   47 1    
    89   45  111 1    
    90   46  112 1    
    91   46  113 1    
    92   46  114 1    
    93   47   48 2    
    94   47   49 am   BACKBONE|DICT|INTERRES
    95   49   50 1    
    96   49  115 1    
    97   50   51 1    
    98   50   52 1    
    99   50  116 1    
   100   51  117 1    
   101   51  118 1    
   102   51  119 1    
   103   52   53 2    
   104   52   54 am   BACKBONE|DICT|INTERRES
   105   54   55 1    
   106   54  120 1    
   107   55   56 1    
   108   55   57 1    
   109   55  121 1    
   110   56  122 1    
   111   56  123 1    
   112   56  124 1    
   113   57   58 2    
   114   57   59 am   BACKBONE|DICT|INTERRES
   115   59   60 1    
   116   59  125 1    
   117   60   61 1    
   118   60   62 1    
   119   60  126 1    
   120   61  127 1    
   121   61  128 1    
   122   61  129 1    
   123   62   63 2    
   124   62   64 am   BACKBONE|DICT|INTERRES
   125   64   65 1    
   126   64  130 1    
   127   65   66 1    
   128   65   69 1    
   129   65  131 1    
   130   66   67 am   BACKBONE|DICT|INTERRES
   131   66   68 2    
   132   67  132 1    
   133   67  133 1    
   134   69   70 1    
   135   69  134 1    
   136   69  135 1    
   137   70   71 1    
   138   71  136 1    
   139   71  137 1    
@<TRIPOS>SUBSTRUCTURE
     1 UNK         1 GROUP             0       ****    0 ROOT    
