@<TRIPOS>MOLECULE
3R136
137   139    1
SMALL
USER_CHARGES


@<TRIPOS>ATOM
      1 CA         28.8089   26.3561    3.4183 C.3       0 UNK        -0.1979 
      2 C          28.0246   25.1169    3.0112 C.2       0 UNK         0.4864 
      3 O          26.8272   25.2056    2.7396 O.2       0 UNK        -0.5359 
      4 N          28.6901   23.9544    2.9655 N.am      1 UNK        -0.4318 
      5 CA         28.0889   22.6316    2.7361 C.3       1 UNK         0.0824 
      6 C6         29.1111   21.4725    2.8785 C.3       12 UNK        -0.0944 
      7 S7         30.1742   21.5872    4.3598 S.3       12 UNK        -0.2672 
      8 C8         31.8238   21.8206    3.6174 C.3       12 UNK         0.0333 
      9 C9         32.0268   23.2426    3.1124 C.ar      12 UNK        -0.0807 
     10 C10        32.5829   24.2107    3.9540 C.ar      12 UNK        -0.0894 
     11 C11        32.7874   25.5155    3.4965 C.ar      12 UNK        -0.0804 
     12 C12        32.4036   25.8585    2.1968 C.ar      12 UNK        -0.0824 
     13 C13        31.8389   24.9023    1.3493 C.ar      12 UNK        -0.0762 
     14 C14        31.6739   23.5909    1.8042 C.ar      12 UNK        -0.0782 
     15 C15        31.4017   25.2869   -0.0546 C.3       12 UNK         0.0230 
     16 S16        29.8606   26.2554   -0.0130 S.3       12 UNK        -0.2608 
     17 C17        30.4828   27.9283   -0.4140 C.3       12 UNK        -0.0989 
     18 CA         29.3687   28.9698   -0.7173 C.3       5 UNK         0.0716 
     19 N          28.3343   28.4026   -1.5848 N.am      5 UNK        -0.4135 
     20 C          27.6209   29.0343   -2.5235 C.2       4 UNK         0.5031 
     21 O          27.8076   30.2022   -2.8636 O.2       4 UNK        -0.5229 
     22 CA         26.4653   28.2284   -3.1481 C.3       4 UNK         0.0329 
     23 CB         26.9261   27.5420   -4.4435 C.3       4 UNK        -0.2001 
     24 N          25.9130   27.2172   -2.2368 N.am      4 UNK        -0.4303 
     25 C          25.3093   27.4671   -1.0667 C.2       3 UNK         0.5044 
     26 O          25.0733   28.6074   -0.6676 O.2       3 UNK        -0.5152 
     27 CA         24.9494   26.2686   -0.1651 C.3       3 UNK         0.0319 
     28 CB         23.5074   25.7931   -0.4276 C.3       3 UNK        -0.2001 
     29 N          25.9038   25.1452   -0.1942 N.am      3 UNK        -0.4354 
     30 C          26.1899   24.3122   -1.2097 C.2       2 UNK         0.4964 
     31 O          25.6714   24.4026   -2.3230 O.2       2 UNK        -0.5047 
     32 CA         27.2561   23.2228   -0.9895 C.3       2 UNK         0.0288 
     33 CB         28.3995   23.3624   -2.0109 C.3       2 UNK        -0.2113 
     34 N          27.8218   23.2287    0.3616 N.am      2 UNK        -0.4145 
     35 C          27.3506   22.5021    1.3857 C.2       1 UNK         0.5006 
     36 O          26.3818   21.7457    1.2989 O.2       1 UNK        -0.5103 
     37 C          28.7844   29.6429    0.5522 C.2       5 UNK         0.5055 
     38 O          29.5338   29.8961    1.4965 O.2       5 UNK        -0.5220 
     39 N          27.4776   29.9538    0.5474 N.am      6 UNK        -0.4450 
     40 CA         26.7048   30.6114    1.6051 C.3       6 UNK         0.0367 
     41 CB         27.2364   32.0375    1.8866 C.3       6 UNK        -0.1929 
     42 C          26.5690   29.7169    2.8512 C.2       6 UNK         0.5070 
     43 O          26.3498   28.5147    2.7076 O.2       6 UNK        -0.5237 
     44 N          26.6633   30.3125    4.0436 N.am      7 UNK        -0.4739 
     45 CA         26.5821   29.6382    5.3384 C.3       7 UNK         0.0276 
     46 CB         25.1328   29.6838    5.8608 C.3       7 UNK        -0.1927 
     47 C          27.5965   30.2824    6.2935 C.2       7 UNK         0.5013 
     48 O          27.2393   30.6946    7.3986 O.2       7 UNK        -0.5193 
     49 N          28.8425   30.3960    5.8239 N.am      8 UNK        -0.4253 
     50 CA         29.9691   31.0022    6.5247 C.3       8 UNK         0.0242 
     51 CB         30.0213   32.5069    6.1983 C.3       8 UNK        -0.2000 
     52 C          31.2558   30.2945    6.0879 C.2       8 UNK         0.4948 
     53 O          31.2411   29.5291    5.1190 O.2       8 UNK        -0.5275 
     54 N          32.3634   30.5886    6.7796 N.am      9 UNK        -0.4246 
     55 CA         33.7020   30.0408    6.5298 C.3       9 UNK         0.0261 
     56 CB         34.5655   30.2400    7.7897 C.3       9 UNK        -0.1959 
     57 C          34.3765   30.6017    5.2574 C.2       9 UNK         0.5033 
     58 O          35.5516   30.9719    5.2933 O.2       9 UNK        -0.5390 
     59 N          33.6397   30.6197    4.1378 N.am      10 UNK        -0.4215 
     60 CA         34.1024   31.0270    2.8040 C.3       10 UNK         0.0240 
     61 CB         32.9025   31.0403    1.8428 C.3       10 UNK        -0.1982 
     62 C          35.2274   30.1325    2.2485 C.2       10 UNK         0.4970 
     63 O          36.0073   30.5795    1.4076 O.2       10 UNK        -0.4916 
     64 N          35.2917   28.8971    2.7539 N.am      11 UNK        -0.4279 
     65 CA         36.3675   27.9234    2.5593 C.3       11 UNK         0.1003 
     66 C          37.7098   28.2761    3.2692 C.2       11 UNK         0.5709 
     67 N          37.7689   29.2693    4.1506 N.am      11 UNK        -0.7358 
     68 O          38.7263   27.6404    3.0000 O.2       11 UNK        -0.4999 
     69 C69        35.8707   26.4954    2.9104 C.3       12 UNK        -0.0954 
     70 S70        35.2123   26.3226    4.6134 S.3       12 UNK        -0.2268 
     71 C71        33.4130   26.5587    4.4089 C.3       12 UNK         0.0203 
     72 H72        29.8605   26.1349    3.5955 H         1 UNK         0.0888 
     73 H73        28.7490   27.1152    2.6389 H         1 UNK         0.0888 
     74 H74        28.3925   26.7786    4.3315 H         1 UNK         0.0888 
     75 H75        29.6755   23.9394    3.1948 H         1 UNK         0.3017 
     76 H76        27.3349   22.5041    3.5158 H         1 UNK         0.0873 
     77 H77        28.5778   20.5216    2.9380 H         1 UNK         0.0745 
     78 H78        29.7380   21.3923    1.9899 H         1 UNK         0.0745 
     79 H79        31.9756   21.1013    2.8111 H         1 UNK         0.0705 
     80 H80        32.5783   21.5875    4.3703 H         1 UNK         0.0705 
     81 H81        32.8694   23.9473    4.9633 H         1 UNK         0.1334 
     82 H82        32.5424   26.8707    1.8430 H         1 UNK         0.1417 
     83 H83        31.2589   22.8452    1.1409 H         1 UNK         0.1562 
     84 H84        31.2367   24.3958   -0.6622 H         1 UNK         0.0748 
     85 H85        32.1984   25.8443   -0.5490 H         1 UNK         0.0748 
     86 H86        31.1118   27.8371   -1.3009 H         1 UNK         0.0940 
     87 H87        31.1521   28.2673    0.3782 H         1 UNK         0.0940 
     88 H88        29.8469   29.7862   -1.2627 H         1 UNK         0.0703 
     89 H89        28.1044   27.4398   -1.3853 H         1 UNK         0.3081 
     90 H90        25.6661   28.9312   -3.3926 H         1 UNK         0.0719 
     91 H91        27.7100   26.8071   -4.2550 H         1 UNK         0.0809 
     92 H92        26.0993   27.0307   -4.9368 H         1 UNK         0.0809 
     93 H93        27.3239   28.2705   -5.1515 H         1 UNK         0.0809 
     94 H94        26.0001   26.2412   -2.5088 H         1 UNK         0.2990 
     95 H95        24.9863   26.6418    0.8602 H         1 UNK         0.0690 
     96 H96        23.2222   24.9969    0.2600 H         1 UNK         0.0788 
     97 H97        23.3760   25.4226   -1.4446 H         1 UNK         0.0788 
     98 H98        22.7989   26.6106   -0.2882 H         1 UNK         0.0788 
     99 H99        26.3884   24.9996    0.6863 H         1 UNK         0.2993 
    100 H100       26.7668   22.2633   -1.1714 H         1 UNK         0.0949 
    101 H101       28.8717   24.3431   -1.9653 H         1 UNK         0.0767 
    102 H102       29.1709   22.6088   -1.8513 H         1 UNK         0.0767 
    103 H103       28.0301   23.2318   -3.0290 H         1 UNK         0.0767 
    104 H104       28.5994   23.8522    0.5289 H         1 UNK         0.3013 
    105 H105       26.9162   29.6326   -0.2318 H         1 UNK         0.3121 
    106 H106       25.6940   30.7152    1.2078 H         1 UNK         0.0774 
    107 H107       26.5507   32.5984    2.5226 H         1 UNK         0.0815 
    108 H108       28.2109   32.0258    2.3764 H         1 UNK         0.0815 
    109 H109       27.3406   32.6049    0.9616 H         1 UNK         0.0815 
    110 H110       26.8624   31.3033    4.0752 H         1 UNK         0.2987 
    111 H111       26.8761   28.5916    5.2326 H         1 UNK         0.0949 
    112 H112       24.7866   30.7087    5.9991 H         1 UNK         0.0806 
    113 H113       24.4487   29.1889    5.1712 H         1 UNK         0.0806 
    114 H114       25.0467   29.1750    6.8217 H         1 UNK         0.0806 
    115 H115       29.0835   29.9771    4.9330 H         1 UNK         0.3010 
    116 H116       29.8541   30.8594    7.6015 H         1 UNK         0.0829 
    117 H117       29.1018   33.0091    6.5000 H         1 UNK         0.0813 
    118 H118       30.8410   33.0008    6.7212 H         1 UNK         0.0813 
    119 H119       30.1614   32.6817    5.1306 H         1 UNK         0.0813 
    120 H120       32.2934   31.2565    7.5343 H         1 UNK         0.3038 
    121 H121       33.5994   28.9647    6.3749 H         1 UNK         0.0769 
    122 H122       34.7302   31.2970    8.0025 H         1 UNK         0.0811 
    123 H123       35.5451   29.7744    7.6717 H         1 UNK         0.0811 
    124 H124       34.1013   29.7877    8.6663 H         1 UNK         0.0811 
    125 H125       32.6835   30.2765    4.2145 H         1 UNK         0.3204 
    126 H126       34.4984   32.0414    2.8826 H         1 UNK         0.0748 
    127 H127       33.2027   31.3586    0.8435 H         1 UNK         0.0771 
    128 H128       32.4490   30.0525    1.7492 H         1 UNK         0.0771 
    129 H129       32.1281   31.7287    2.1822 H         1 UNK         0.0771 
    130 H130       34.6129   28.6416    3.4524 H         1 UNK         0.2980 
    131 H131       36.6009   27.9251    1.4930 H         1 UNK         0.0545 
    132 H132       36.9477   29.8094    4.3990 H         1 UNK         0.3459 
    133 H133       38.6514   29.4787    4.5887 H         1 UNK         0.3459 
    134 H134       36.6779   25.7712    2.7873 H         1 UNK         0.0616 
    135 H135       35.1118   26.1899    2.1918 H         1 UNK         0.0616 
    136 H136       33.2080   27.5633    4.0392 H         1 UNK         0.0634 
    137 H137       32.9413   26.5026    5.3911 H         1 UNK         0.0634 
@<TRIPOS>BOND
     1    1    2 1    
     2    1   72 1    
     3    1   73 1    
     4    1   74 1    
     5    2    3 2    
     6    2    4 am   BACKBONE|DICT|INTERRES
     7    4    5 1    
     8    4   75 1    
     9    5    6 1    
    10    5   35 1    
    11    5   76 1    
    12    6    7 1    
    13    6   77 1    
    14    6   78 1    
    15    7    8 1    
    16    8    9 1    
    17    8   79 1    
    18    8   80 1    
    19    9   10 ar   
    20    9   14 ar   
    21   10   11 ar   
    22   10   81 1    
    23   11   12 ar   
    24   11   71 1    
    25   12   13 ar   
    26   12   82 1    
    27   13   14 ar   
    28   13   15 1    
    29   14   83 1    
    30   15   16 1    
    31   15   84 1    
    32   15   85 1    
    33   16   17 1    
    34   17   18 1    
    35   17   86 1    
    36   17   87 1    
    37   18   19 1    
    38   18   37 1    
    39   18   88 1    
    40   19   20 am   BACKBONE|DICT|INTERRES
    41   19   89 1    
    42   20   21 2    
    43   20   22 1    
    44   22   23 1    
    45   22   24 1    
    46   22   90 1    
    47   23   91 1    
    48   23   92 1    
    49   23   93 1    
    50   24   25 am   BACKBONE|DICT|INTERRES
    51   24   94 1    
    52   25   26 2    
    53   25   27 1    
    54   27   28 1    
    55   27   29 1    
    56   27   95 1    
    57   28   96 1    
    58   28   97 1    
    59   28   98 1    
    60   29   30 am   BACKBONE|DICT|INTERRES
    61   29   99 1    
    62   30   31 2    
    63   30   32 1    
    64   32   33 1    
    65   32   34 1    
    66   32  100 1    
    67   33  101 1    
    68   33  102 1    
    69   33  103 1    
    70   34   35 am   BACKBONE|DICT|INTERRES
    71   34  104 1    
    72   35   36 2    
    73   37   38 2    
    74   37   39 am   BACKBONE|DICT|INTERRES
    75   39   40 1    
    76   39  105 1    
    77   40   41 1    
    78   40   42 1    
    79   40  106 1    
    80   41  107 1    
    81   41  108 1    
    82   41  109 1    
    83   42   43 2    
    84   42   44 am   BACKBONE|DICT|INTERRES
    85   44   45 1    
    86   44  110 1    
    87   45   46 1    
    88   45   47 1    
    89   45  111 1    
    90   46  112 1    
    91   46  113 1    
    92   46  114 1    
    93   47   48 2    
    94   47   49 am   BACKBONE|DICT|INTERRES
    95   49   50 1    
    96   49  115 1    
    97   50   51 1    
    98   50   52 1    
    99   50  116 1    
   100   51  117 1    
   101   51  118 1    
   102   51  119 1    
   103   52   53 2    
   104   52   54 am   BACKBONE|DICT|INTERRES
   105   54   55 1    
   106   54  120 1    
   107   55   56 1    
   108   55   57 1    
   109   55  121 1    
   110   56  122 1    
   111   56  123 1    
   112   56  124 1    
   113   57   58 2    
   114   57   59 am   BACKBONE|DICT|INTERRES
   115   59   60 1    
   116   59  125 1    
   117   60   61 1    
   118   60   62 1    
   119   60  126 1    
   120   61  127 1    
   121   61  128 1    
   122   61  129 1    
   123   62   63 2    
   124   62   64 am   BACKBONE|DICT|INTERRES
   125   64   65 1    
   126   64  130 1    
   127   65   66 1    
   128   65   69 1    
   129   65  131 1    
   130   66   67 am   BACKBONE|DICT|INTERRES
   131   66   68 2    
   132   67  132 1    
   133   67  133 1    
   134   69   70 1    
   135   69  134 1    
   136   69  135 1    
   137   70   71 1    
   138   71  136 1    
   139   71  137 1    
@<TRIPOS>SUBSTRUCTURE
     1 UNK         1 GROUP             0       ****    0 ROOT    
