@<TRIPOS>MOLECULE
3R136
137   139    1
SMALL
USER_CHARGES


@<TRIPOS>ATOM
      1 CA         29.1230   22.1525   -3.6753 C.3       0 UNK        -0.1979 
      2 C          28.6069   22.9730   -2.5039 C.2       0 UNK         0.4864 
      3 O          27.4652   23.4344   -2.5346 O.2       0 UNK        -0.5359 
      4 N          29.4252   23.1389   -1.4543 N.am      1 UNK        -0.4318 
      5 CA         29.1213   23.9417   -0.2598 C.3       1 UNK         0.0824 
      6 C6         30.3741   24.1958    0.6115 C.3       12 UNK        -0.0944 
      7 S7         31.2136   22.6788    1.1968 S.3       12 UNK        -0.2672 
      8 C8         30.5209   22.4460    2.8715 C.3       12 UNK         0.0333 
      9 C9         30.6566   23.6799    3.7556 C.ar      12 UNK        -0.0807 
     10 C10        31.9131   24.2439    3.9990 C.ar      12 UNK        -0.0894 
     11 C11        32.0338   25.3976    4.7788 C.ar      12 UNK        -0.0804 
     12 C12        30.8910   25.9721    5.3387 C.ar      12 UNK        -0.0824 
     13 C13        29.6313   25.4106    5.1180 C.ar      12 UNK        -0.0762 
     14 C14        29.5194   24.2653    4.3229 C.ar      12 UNK        -0.0782 
     15 C15        28.3992   26.0282    5.7642 C.3       12 UNK         0.0230 
     16 S16        27.1991   26.6487    4.5448 S.3       12 UNK        -0.2608 
     17 C17        28.0743   28.0726    3.8028 C.3       12 UNK        -0.0989 
     18 CA         28.1125   28.0147    2.2513 C.3       5 UNK         0.0716 
     19 N          26.7730   27.7882    1.6882 N.am      5 UNK        -0.4135 
     20 C          26.5055   27.2486    0.4940 C.2       4 UNK         0.5031 
     21 O          27.3701   26.9505   -0.3341 O.2       4 UNK        -0.5229 
     22 CA         25.0320   27.0453    0.1384 C.3       4 UNK         0.0329 
     23 CB         24.5273   28.1961   -0.7527 C.3       4 UNK        -0.2001 
     24 N          24.9140   25.7646   -0.5508 N.am      4 UNK        -0.4303 
     25 C          23.7813   25.0843   -0.7588 C.2       3 UNK         0.5044 
     26 O          22.6644   25.4887   -0.4337 O.2       3 UNK        -0.5152 
     27 CA         23.9216   23.7055   -1.4240 C.3       3 UNK         0.0319 
     28 CB         24.1195   23.8476   -2.9420 C.3       3 UNK        -0.2001 
     29 N          25.0241   22.9321   -0.8466 N.am      3 UNK        -0.4354 
     30 C          24.9668   22.3294    0.3536 C.2       2 UNK         0.4964 
     31 O          23.9542   22.3040    1.0537 O.2       2 UNK        -0.5047 
     32 CA         26.2404   21.6341    0.8745 C.3       2 UNK         0.0288 
     33 CB         26.1972   20.1283    0.5705 C.3       2 UNK        -0.2113 
     34 N          27.4728   22.1978    0.3251 N.am      2 UNK        -0.4145 
     35 C          27.9256   23.4336    0.5788 C.2       1 UNK         0.5006 
     36 O          27.4191   24.1742    1.4210 O.2       1 UNK        -0.5103 
     37 C          28.7623   29.2737    1.6248 C.2       5 UNK         0.5055 
     38 O          29.0969   30.2253    2.3345 O.2       5 UNK        -0.5220 
     39 N          28.8712   29.2704    0.2890 N.am      6 UNK        -0.4450 
     40 CA         29.1700   30.4168   -0.5739 C.3       6 UNK         0.0367 
     41 CB         29.0495   29.9768   -2.0415 C.3       6 UNK        -0.1929 
     42 C          30.5227   31.1044   -0.3315 C.2       6 UNK         0.5070 
     43 O          30.6471   32.2938   -0.6256 O.2       6 UNK        -0.5237 
     44 N          31.5057   30.3802    0.2185 N.am      7 UNK        -0.4739 
     45 CA         32.8370   30.8886    0.5692 C.3       7 UNK         0.0276 
     46 CB         33.8210   29.7080    0.6190 C.3       7 UNK        -0.1927 
     47 C          32.8249   31.7188    1.8718 C.2       7 UNK         0.5013 
     48 O          33.5890   31.4364    2.7973 O.2       7 UNK        -0.5193 
     49 N          31.9315   32.7181    1.9210 N.am      8 UNK        -0.4253 
     50 CA         31.6931   33.6711    3.0121 C.3       8 UNK         0.0242 
     51 CB         32.8607   34.6770    3.0969 C.3       8 UNK        -0.2000 
     52 C          31.3932   33.0038    4.3699 C.2       8 UNK         0.4948 
     53 O          31.7947   33.5349    5.4070 O.2       8 UNK        -0.5275 
     54 N          30.7365   31.8328    4.3459 N.am      9 UNK        -0.4246 
     55 CA         30.4009   30.9395    5.4657 C.3       9 UNK         0.0261 
     56 CB         29.4247   31.6149    6.4474 C.3       9 UNK        -0.1959 
     57 C          31.6006   30.3254    6.2167 C.2       9 UNK         0.5033 
     58 O          31.5090   29.1748    6.6412 O.2       9 UNK        -0.5390 
     59 N          32.6854   31.0862    6.3924 N.am      10 UNK        -0.4215 
     60 CA         33.8902   30.6873    7.1182 C.3       10 UNK         0.0240 
     61 CB         34.6487   31.9508    7.5560 C.3       10 UNK        -0.1982 
     62 C          34.8210   29.7567    6.3225 C.2       10 UNK         0.4970 
     63 O          35.5565   28.9917    6.9476 O.2       10 UNK        -0.4916 
     64 N          34.8076   29.8546    4.9848 N.am      11 UNK        -0.4279 
     65 CA         35.7159   29.1475    4.0615 C.3       11 UNK         0.1003 
     66 C          37.2126   29.5763    4.1709 C.2       11 UNK         0.5709 
     67 N          37.5279   30.7319    4.7447 N.am      11 UNK        -0.7358 
     68 O          38.1044   28.8727    3.7015 O.2       11 UNK        -0.4999 
     69 C69        35.5258   27.6028    4.0566 C.3       12 UNK        -0.0954 
     70 S70        33.8318   27.1051    3.6052 S.3       12 UNK        -0.2268 
     71 C71        33.3960   26.0323    5.0025 C.3       12 UNK         0.0203 
     72 H72        28.4749   21.2933   -3.8459 H         1 UNK         0.0888 
     73 H73        29.1308   22.7583   -4.5810 H         1 UNK         0.0888 
     74 H74        30.1351   21.7866   -3.5023 H         1 UNK         0.0888 
     75 H75        30.3431   22.7156   -1.4647 H         1 UNK         0.3017 
     76 H76        28.8096   24.9150   -0.6388 H         1 UNK         0.0873 
     77 H77        30.1311   24.8515    1.4488 H         1 UNK         0.0745 
     78 H78        31.1041   24.7563    0.0251 H         1 UNK         0.0745 
     79 H79        29.4760   22.1458    2.7819 H         1 UNK         0.0705 
     80 H80        31.0361   21.6118    3.3499 H         1 UNK         0.0705 
     81 H81        32.7950   23.8001    3.5572 H         1 UNK         0.1334 
     82 H82        30.9844   26.8580    5.9491 H         1 UNK         0.1417 
     83 H83        28.5417   23.8396    4.1394 H         1 UNK         0.1562 
     84 H84        28.6736   26.8412    6.4389 H         1 UNK         0.0748 
     85 H85        27.9110   25.2726    6.3811 H         1 UNK         0.0748 
     86 H86        29.0924   28.1083    4.1927 H         1 UNK         0.0940 
     87 H87        27.5807   28.9835    4.1475 H         1 UNK         0.0940 
     88 H88        28.7406   27.1637    1.9762 H         1 UNK         0.0703 
     89 H89        26.0036   28.0231    2.2978 H         1 UNK         0.3081 
     90 H90        24.4437   27.0053    1.0576 H         1 UNK         0.0719 
     91 H91        25.0723   28.2412   -1.6964 H         1 UNK         0.0809 
     92 H92        23.4676   28.0903   -0.9841 H         1 UNK         0.0809 
     93 H93        24.6531   29.1593   -0.2564 H         1 UNK         0.0809 
     94 H94        25.7976   25.3618   -0.8374 H         1 UNK         0.2990 
     95 H95        22.9913   23.1574   -1.2593 H         1 UNK         0.0690 
     96 H96        24.1853   22.8736   -3.4264 H         1 UNK         0.0788 
     97 H97        25.0259   24.4032   -3.1844 H         1 UNK         0.0788 
     98 H98        23.2819   24.3791   -3.3947 H         1 UNK         0.0788 
     99 H99        25.8965   22.9302   -1.3666 H         1 UNK         0.2993 
    100 H100       26.2637   21.7667    1.9586 H         1 UNK         0.0949 
    101 H101       25.3016   19.6710    0.9936 H         1 UNK         0.0767 
    102 H102       26.1876   19.9330   -0.5028 H         1 UNK         0.0767 
    103 H103       27.0558   19.6119    0.9999 H         1 UNK         0.0767 
    104 H104       27.9555   21.6518   -0.3731 H         1 UNK         0.3013 
    105 H105       28.5344   28.4330   -0.1812 H         1 UNK         0.3121 
    106 H106       28.3994   31.1659   -0.3816 H         1 UNK         0.0774 
    107 H107       29.2280   30.8138   -2.7182 H         1 UNK         0.0815 
    108 H108       29.7717   29.1976   -2.2880 H         1 UNK         0.0815 
    109 H109       28.0531   29.5923   -2.2607 H         1 UNK         0.0815 
    110 H110       31.3056   29.4215    0.4631 H         1 UNK         0.2987 
    111 H111       33.1731   31.5590   -0.2249 H         1 UNK         0.0949 
    112 H112       33.5565   29.0010    1.4042 H         1 UNK         0.0806 
    113 H113       33.8410   29.1667   -0.3268 H         1 UNK         0.0806 
    114 H114       34.8372   30.0537    0.8117 H         1 UNK         0.0806 
    115 H115       31.3458   32.8308    1.0974 H         1 UNK         0.3010 
    116 H116       30.7931   34.2264    2.7444 H         1 UNK         0.0829 
    117 H117       33.0398   35.1593    2.1361 H         1 UNK         0.0813 
    118 H118       32.6489   35.4671    3.8184 H         1 UNK         0.0813 
    119 H119       33.7873   34.1921    3.4065 H         1 UNK         0.0813 
    120 H120       30.4491   31.4772    3.4396 H         1 UNK         0.3038 
    121 H121       29.8717   30.1036    5.0113 H         1 UNK         0.0769 
    122 H122       28.5319   31.9717    5.9346 H         1 UNK         0.0811 
    123 H123       29.8805   32.4629    6.9586 H         1 UNK         0.0811 
    124 H124       29.0982   30.9122    7.2150 H         1 UNK         0.0811 
    125 H125       32.6325   32.0441    6.0508 H         1 UNK         0.3204 
    126 H126       33.5837   30.1487    8.0174 H         1 UNK         0.0748 
    127 H127       34.0334   32.5754    8.2043 H         1 UNK         0.0771 
    128 H128       35.5494   31.6939    8.1156 H         1 UNK         0.0771 
    129 H129       34.9549   32.5555    6.7016 H         1 UNK         0.0771 
    130 H130       34.1820   30.5146    4.5349 H         1 UNK         0.2980 
    131 H131       35.4289   29.4950    3.0709 H         1 UNK         0.0545 
    132 H132       38.4957   31.0070    4.8016 H         1 UNK         0.3459 
    133 H133       36.8083   31.3321    5.1124 H         1 UNK         0.3459 
    134 H134       36.1892   27.1375    3.3262 H         1 UNK         0.0616 
    135 H135       35.7995   27.1775    5.0228 H         1 UNK         0.0616 
    136 H136       34.1530   25.2557    5.1178 H         1 UNK         0.0634 
    137 H137       33.4025   26.6192    5.9225 H         1 UNK         0.0634 
@<TRIPOS>BOND
     1    1    2 1    
     2    1   72 1    
     3    1   73 1    
     4    1   74 1    
     5    2    3 2    
     6    2    4 am   BACKBONE|DICT|INTERRES
     7    4    5 1    
     8    4   75 1    
     9    5    6 1    
    10    5   35 1    
    11    5   76 1    
    12    6    7 1    
    13    6   77 1    
    14    6   78 1    
    15    7    8 1    
    16    8    9 1    
    17    8   79 1    
    18    8   80 1    
    19    9   10 ar   
    20    9   14 ar   
    21   10   11 ar   
    22   10   81 1    
    23   11   12 ar   
    24   11   71 1    
    25   12   13 ar   
    26   12   82 1    
    27   13   14 ar   
    28   13   15 1    
    29   14   83 1    
    30   15   16 1    
    31   15   84 1    
    32   15   85 1    
    33   16   17 1    
    34   17   18 1    
    35   17   86 1    
    36   17   87 1    
    37   18   19 1    
    38   18   37 1    
    39   18   88 1    
    40   19   20 am   BACKBONE|DICT|INTERRES
    41   19   89 1    
    42   20   21 2    
    43   20   22 1    
    44   22   23 1    
    45   22   24 1    
    46   22   90 1    
    47   23   91 1    
    48   23   92 1    
    49   23   93 1    
    50   24   25 am   BACKBONE|DICT|INTERRES
    51   24   94 1    
    52   25   26 2    
    53   25   27 1    
    54   27   28 1    
    55   27   29 1    
    56   27   95 1    
    57   28   96 1    
    58   28   97 1    
    59   28   98 1    
    60   29   30 am   BACKBONE|DICT|INTERRES
    61   29   99 1    
    62   30   31 2    
    63   30   32 1    
    64   32   33 1    
    65   32   34 1    
    66   32  100 1    
    67   33  101 1    
    68   33  102 1    
    69   33  103 1    
    70   34   35 am   BACKBONE|DICT|INTERRES
    71   34  104 1    
    72   35   36 2    
    73   37   38 2    
    74   37   39 am   BACKBONE|DICT|INTERRES
    75   39   40 1    
    76   39  105 1    
    77   40   41 1    
    78   40   42 1    
    79   40  106 1    
    80   41  107 1    
    81   41  108 1    
    82   41  109 1    
    83   42   43 2    
    84   42   44 am   BACKBONE|DICT|INTERRES
    85   44   45 1    
    86   44  110 1    
    87   45   46 1    
    88   45   47 1    
    89   45  111 1    
    90   46  112 1    
    91   46  113 1    
    92   46  114 1    
    93   47   48 2    
    94   47   49 am   BACKBONE|DICT|INTERRES
    95   49   50 1    
    96   49  115 1    
    97   50   51 1    
    98   50   52 1    
    99   50  116 1    
   100   51  117 1    
   101   51  118 1    
   102   51  119 1    
   103   52   53 2    
   104   52   54 am   BACKBONE|DICT|INTERRES
   105   54   55 1    
   106   54  120 1    
   107   55   56 1    
   108   55   57 1    
   109   55  121 1    
   110   56  122 1    
   111   56  123 1    
   112   56  124 1    
   113   57   58 2    
   114   57   59 am   BACKBONE|DICT|INTERRES
   115   59   60 1    
   116   59  125 1    
   117   60   61 1    
   118   60   62 1    
   119   60  126 1    
   120   61  127 1    
   121   61  128 1    
   122   61  129 1    
   123   62   63 2    
   124   62   64 am   BACKBONE|DICT|INTERRES
   125   64   65 1    
   126   64  130 1    
   127   65   66 1    
   128   65   69 1    
   129   65  131 1    
   130   66   67 am   BACKBONE|DICT|INTERRES
   131   66   68 2    
   132   67  132 1    
   133   67  133 1    
   134   69   70 1    
   135   69  134 1    
   136   69  135 1    
   137   70   71 1    
   138   71  136 1    
   139   71  137 1    
@<TRIPOS>SUBSTRUCTURE
     1 UNK         1 GROUP             0       ****    0 ROOT    
