@<TRIPOS>MOLECULE
3R136
137   139    1
SMALL
USER_CHARGES


@<TRIPOS>ATOM
      1 CA         27.9643   22.4233    1.2033 C.3       0 UNK        -0.1979 
      2 C          28.9489   22.7547    0.0914 C.2       0 UNK         0.4864 
      3 O          29.7833   21.9181   -0.2571 O.2       0 UNK        -0.5359 
      4 N          28.8573   23.9724   -0.4503 N.am      1 UNK        -0.4318 
      5 CA         29.6633   24.4940   -1.5560 C.3       1 UNK         0.0824 
      6 C6         30.3899   25.8343   -1.1972 C.3       12 UNK        -0.0944 
      7 S7         30.9214   26.0273    0.5357 S.3       12 UNK        -0.2672 
      8 C8         32.2104   24.7629    0.7219 C.3       12 UNK         0.0333 
      9 C9         32.4395   24.5071    2.2018 C.ar      12 UNK        -0.0807 
     10 C10        33.5059   25.1053    2.8781 C.ar      12 UNK        -0.0894 
     11 C11        33.6635   24.9300    4.2571 C.ar      12 UNK        -0.0804 
     12 C12        32.7466   24.1314    4.9537 C.ar      12 UNK        -0.0824 
     13 C13        31.6739   23.5298    4.2869 C.ar      12 UNK        -0.0762 
     14 C14        31.5390   23.7079    2.9087 C.ar      12 UNK        -0.0782 
     15 C15        30.6536   22.6961    5.0523 C.3       12 UNK         0.0230 
     16 S16        28.9439   23.3026    4.8384 S.3       12 UNK        -0.2608 
     17 C17        29.0412   24.9844    5.5415 C.3       12 UNK        -0.0989 
     18 CA         28.7557   26.0922    4.4942 C.3       5 UNK         0.0716 
     19 N          27.4196   25.9483    3.8916 N.am      5 UNK        -0.4135 
     20 C          26.8789   26.7548    2.9672 C.2       4 UNK         0.5031 
     21 O          27.4086   27.7917    2.5639 O.2       4 UNK        -0.5229 
     22 CA         25.4740   26.3734    2.4610 C.3       4 UNK         0.0329 
     23 CB         24.4026   26.8997    3.4307 C.3       4 UNK        -0.2001 
     24 N          25.1953   26.8981    1.1185 N.am      4 UNK        -0.4303 
     25 C          25.8853   26.5668    0.0199 C.2       3 UNK         0.5044 
     26 O          26.7735   25.7107    0.0154 O.2       3 UNK        -0.5152 
     27 CA         25.5337   27.3044   -1.2853 C.3       3 UNK         0.0319 
     28 CB         25.4725   28.8327   -1.0945 C.3       3 UNK        -0.2001 
     29 N          26.5610   26.9828   -2.2726 N.am      3 UNK        -0.4354 
     30 C          26.3815   26.6714   -3.5625 C.2       2 UNK         0.4964 
     31 O          25.2953   26.7363   -4.1388 O.2       2 UNK        -0.5047 
     32 CA         27.6289   26.2003   -4.3460 C.3       2 UNK         0.0288 
     33 CB         28.1477   27.3252   -5.2571 C.3       2 UNK        -0.2113 
     34 N          28.7167   25.7614   -3.4618 N.am      2 UNK        -0.4145 
     35 C          28.7080   24.6118   -2.7686 C.2       1 UNK         0.5006 
     36 O          27.9297   23.6884   -3.0234 O.2       1 UNK        -0.5103 
     37 C          29.0150   27.4775    5.1272 C.2       5 UNK         0.5055 
     38 O          30.1516   27.9392    5.1117 O.2       5 UNK        -0.5220 
     39 N          27.9711   28.1132    5.6764 N.am      6 UNK        -0.4450 
     40 CA         28.0436   29.4511    6.2691 C.3       6 UNK         0.0367 
     41 CB         26.9981   29.5443    7.3938 C.3       6 UNK        -0.1929 
     42 C          27.8303   30.5863    5.2482 C.2       6 UNK         0.5070 
     43 O          28.0537   31.7456    5.5988 O.2       6 UNK        -0.5237 
     44 N          27.3651   30.2626    4.0340 N.am      7 UNK        -0.4739 
     45 CA         26.9520   31.2293    3.0130 C.3       7 UNK         0.0276 
     46 CB         25.5979   30.7789    2.4367 C.3       7 UNK        -0.1927 
     47 C          27.9783   31.3929    1.8802 C.2       7 UNK         0.5013 
     48 O          27.8425   32.3332    1.0954 O.2       7 UNK        -0.5193 
     49 N          28.9647   30.4945    1.7886 N.am      8 UNK        -0.4253 
     50 CA         29.9732   30.4659    0.7327 C.3       8 UNK         0.0242 
     51 CB         29.4596   29.5911   -0.4265 C.3       8 UNK        -0.2000 
     52 C          31.3036   29.9381    1.2820 C.2       8 UNK         0.4948 
     53 O          31.3223   29.3052    2.3388 O.2       8 UNK        -0.5275 
     54 N          32.3817   30.1984    0.5262 N.am      9 UNK        -0.4246 
     55 CA         33.7714   29.7922    0.7769 C.3       9 UNK         0.0261 
     56 CB         33.8949   28.2526    0.7305 C.3       9 UNK        -0.1959 
     57 C          34.3716   30.4052    2.0605 C.2       9 UNK         0.5033 
     58 O          33.8087   31.3446    2.6290 O.2       9 UNK        -0.5390 
     59 N          35.5306   29.8792    2.4835 N.am      10 UNK        -0.4215 
     60 CA         36.2915   30.3274    3.6573 C.3       10 UNK         0.0240 
     61 CB         37.6381   29.5860    3.6969 C.3       10 UNK        -0.1982 
     62 C          35.5502   30.1603    4.9970 C.2       10 UNK         0.4970 
     63 O          35.8515   30.8877    5.9441 O.2       10 UNK        -0.4916 
     64 N          34.5995   29.2205    5.0480 N.am      11 UNK        -0.4279 
     65 CA         33.6893   29.0066    6.1799 C.3       11 UNK         0.1003 
     66 C          32.5440   30.0599    6.2820 C.2       11 UNK         0.5709 
     67 N          32.3377   30.9364    5.3042 N.am      11 UNK        -0.7358 
     68 O          31.8521   30.1097    7.2966 O.2       11 UNK        -0.4999 
     69 C69        33.1445   27.5551    6.1856 C.3       12 UNK        -0.0954 
     70 S70        34.4253   26.3216    6.5959 S.3       12 UNK        -0.2268 
     71 C71        34.8361   25.6050    4.9671 C.3       12 UNK         0.0203 
     72 H72        28.4816   21.9546    2.0398 H         1 UNK         0.0888 
     73 H73        27.4623   23.3165    1.5762 H         1 UNK         0.0888 
     74 H74        27.2062   21.7309    0.8390 H         1 UNK         0.0888 
     75 H75        28.1037   24.5938   -0.1533 H         1 UNK         0.3017 
     76 H76        30.4259   23.7642   -1.8336 H         1 UNK         0.0873 
     77 H77        31.2536   25.9841   -1.8474 H         1 UNK         0.0745 
     78 H78        29.7385   26.6939   -1.3523 H         1 UNK         0.0745 
     79 H79        31.9064   23.8375    0.2315 H         1 UNK         0.0705 
     80 H80        33.1260   25.0965    0.2316 H         1 UNK         0.0705 
     81 H81        34.2063   25.7199    2.3310 H         1 UNK         0.1334 
     82 H82        32.8613   23.9897    6.0194 H         1 UNK         0.1417 
     83 H83        30.7059   23.2554    2.3904 H         1 UNK         0.1562 
     84 H84        30.8888   22.6718    6.1176 H         1 UNK         0.0748 
     85 H85        30.7073   21.6645    4.7020 H         1 UNK         0.0748 
     86 H86        30.0287   25.1266    5.9861 H         1 UNK         0.0940 
     87 H87        28.3318   25.0469    6.3691 H         1 UNK         0.0940 
     88 H88        29.4769   25.9846    3.6801 H         1 UNK         0.0703 
     89 H89        26.9098   25.1228    4.1717 H         1 UNK         0.3081 
     90 H90        25.4069   25.2843    2.4144 H         1 UNK         0.0719 
     91 H91        24.4304   27.9872    3.5120 H         1 UNK         0.0809 
     92 H92        23.4011   26.6131    3.1094 H         1 UNK         0.0809 
     93 H93        24.5441   26.4948    4.4336 H         1 UNK         0.0809 
     94 H94        24.4895   27.6156    1.0505 H         1 UNK         0.2990 
     95 H95        24.5632   26.9372   -1.6251 H         1 UNK         0.0690 
     96 H96        24.6202   29.1240   -0.4803 H         1 UNK         0.0788 
     97 H97        25.3652   29.3469   -2.0498 H         1 UNK         0.0788 
     98 H98        26.3714   29.2145   -0.6093 H         1 UNK         0.0788 
     99 H99        27.4705   26.8181   -1.8676 H         1 UNK         0.2993 
    100 H100       27.3246   25.3600   -4.9741 H         1 UNK         0.0949 
    101 H101       28.9951   26.9914   -5.8565 H         1 UNK         0.0767 
    102 H102       27.3721   27.6538   -5.9506 H         1 UNK         0.0767 
    103 H103       28.4630   28.1981   -4.6838 H         1 UNK         0.0767 
    104 H104       29.4203   26.4522   -3.2444 H         1 UNK         0.3013 
    105 H105       27.0653   27.6684    5.6567 H         1 UNK         0.3121 
    106 H106       29.0306   29.5980    6.7143 H         1 UNK         0.0774 
    107 H107       27.0457   30.5137    7.8919 H         1 UNK         0.0815 
    108 H108       25.9829   29.4235    7.0139 H         1 UNK         0.0815 
    109 H109       27.1663   28.7836    8.1562 H         1 UNK         0.0815 
    110 H110       27.2959   29.2841    3.7675 H         1 UNK         0.2987 
    111 H111       26.8132   32.2151    3.4623 H         1 UNK         0.0949 
    112 H112       25.6734   29.8093    1.9442 H         1 UNK         0.0806 
    113 H113       24.8401   30.7026    3.2164 H         1 UNK         0.0806 
    114 H114       25.2301   31.4913    1.6970 H         1 UNK         0.0806 
    115 H115       29.0494   29.7627    2.4843 H         1 UNK         0.3010 
    116 H116       30.1523   31.4800    0.3685 H         1 UNK         0.0829 
    117 H117       28.6092   30.0578   -0.9229 H         1 UNK         0.0813 
    118 H118       30.2278   29.4325   -1.1842 H         1 UNK         0.0813 
    119 H119       29.1415   28.6116   -0.0672 H         1 UNK         0.0813 
    120 H120       32.2470   30.7587   -0.3036 H         1 UNK         0.3038 
    121 H121       34.3546   30.1975   -0.0512 H         1 UNK         0.0769 
    122 H122       33.4061   27.7893    1.5877 H         1 UNK         0.0811 
    123 H123       34.9336   27.9225    0.7187 H         1 UNK         0.0811 
    124 H124       33.4283   27.8495   -0.1685 H         1 UNK         0.0811 
    125 H125       35.9375   29.1267    1.9471 H         1 UNK         0.3204 
    126 H126       36.4909   31.3937    3.5314 H         1 UNK         0.0748 
    127 H127       38.2424   29.9189    4.5422 H         1 UNK         0.0771 
    128 H128       37.5034   28.5081    3.7982 H         1 UNK         0.0771 
    129 H129       38.2211   29.7700    2.7942 H         1 UNK         0.0771 
    130 H130       34.3979   28.6903    4.2151 H         1 UNK         0.2980 
    131 H131       34.2698   29.1356    7.0955 H         1 UNK         0.0545 
    132 H132       31.5940   31.6074    5.4023 H         1 UNK         0.3459 
    133 H133       32.8821   30.9119    4.4500 H         1 UNK         0.3459 
    134 H134       32.3534   27.4414    6.9290 H         1 UNK         0.0616 
    135 H135       32.6886   27.3157    5.2241 H         1 UNK         0.0616 
    136 H136       35.2588   26.3949    4.3446 H         1 UNK         0.0634 
    137 H137       35.6266   24.8665    5.1048 H         1 UNK         0.0634 
@<TRIPOS>BOND
     1    1    2 1    
     2    1   72 1    
     3    1   73 1    
     4    1   74 1    
     5    2    3 2    
     6    2    4 am   BACKBONE|DICT|INTERRES
     7    4    5 1    
     8    4   75 1    
     9    5    6 1    
    10    5   35 1    
    11    5   76 1    
    12    6    7 1    
    13    6   77 1    
    14    6   78 1    
    15    7    8 1    
    16    8    9 1    
    17    8   79 1    
    18    8   80 1    
    19    9   10 ar   
    20    9   14 ar   
    21   10   11 ar   
    22   10   81 1    
    23   11   12 ar   
    24   11   71 1    
    25   12   13 ar   
    26   12   82 1    
    27   13   14 ar   
    28   13   15 1    
    29   14   83 1    
    30   15   16 1    
    31   15   84 1    
    32   15   85 1    
    33   16   17 1    
    34   17   18 1    
    35   17   86 1    
    36   17   87 1    
    37   18   19 1    
    38   18   37 1    
    39   18   88 1    
    40   19   20 am   BACKBONE|DICT|INTERRES
    41   19   89 1    
    42   20   21 2    
    43   20   22 1    
    44   22   23 1    
    45   22   24 1    
    46   22   90 1    
    47   23   91 1    
    48   23   92 1    
    49   23   93 1    
    50   24   25 am   BACKBONE|DICT|INTERRES
    51   24   94 1    
    52   25   26 2    
    53   25   27 1    
    54   27   28 1    
    55   27   29 1    
    56   27   95 1    
    57   28   96 1    
    58   28   97 1    
    59   28   98 1    
    60   29   30 am   BACKBONE|DICT|INTERRES
    61   29   99 1    
    62   30   31 2    
    63   30   32 1    
    64   32   33 1    
    65   32   34 1    
    66   32  100 1    
    67   33  101 1    
    68   33  102 1    
    69   33  103 1    
    70   34   35 am   BACKBONE|DICT|INTERRES
    71   34  104 1    
    72   35   36 2    
    73   37   38 2    
    74   37   39 am   BACKBONE|DICT|INTERRES
    75   39   40 1    
    76   39  105 1    
    77   40   41 1    
    78   40   42 1    
    79   40  106 1    
    80   41  107 1    
    81   41  108 1    
    82   41  109 1    
    83   42   43 2    
    84   42   44 am   BACKBONE|DICT|INTERRES
    85   44   45 1    
    86   44  110 1    
    87   45   46 1    
    88   45   47 1    
    89   45  111 1    
    90   46  112 1    
    91   46  113 1    
    92   46  114 1    
    93   47   48 2    
    94   47   49 am   BACKBONE|DICT|INTERRES
    95   49   50 1    
    96   49  115 1    
    97   50   51 1    
    98   50   52 1    
    99   50  116 1    
   100   51  117 1    
   101   51  118 1    
   102   51  119 1    
   103   52   53 2    
   104   52   54 am   BACKBONE|DICT|INTERRES
   105   54   55 1    
   106   54  120 1    
   107   55   56 1    
   108   55   57 1    
   109   55  121 1    
   110   56  122 1    
   111   56  123 1    
   112   56  124 1    
   113   57   58 2    
   114   57   59 am   BACKBONE|DICT|INTERRES
   115   59   60 1    
   116   59  125 1    
   117   60   61 1    
   118   60   62 1    
   119   60  126 1    
   120   61  127 1    
   121   61  128 1    
   122   61  129 1    
   123   62   63 2    
   124   62   64 am   BACKBONE|DICT|INTERRES
   125   64   65 1    
   126   64  130 1    
   127   65   66 1    
   128   65   69 1    
   129   65  131 1    
   130   66   67 am   BACKBONE|DICT|INTERRES
   131   66   68 2    
   132   67  132 1    
   133   67  133 1    
   134   69   70 1    
   135   69  134 1    
   136   69  135 1    
   137   70   71 1    
   138   71  136 1    
   139   71  137 1    
@<TRIPOS>SUBSTRUCTURE
     1 UNK         1 GROUP             0       ****    0 ROOT    
