@<TRIPOS>MOLECULE
3R136
137   139    1
SMALL
USER_CHARGES


@<TRIPOS>ATOM
      1 CA         34.1720   23.6372    1.3645 C.3       0 UNK        -0.1979 
      2 C          32.7936   24.2768    1.4207 C.2       0 UNK         0.4864 
      3 O          32.6627   25.3875    1.9356 O.2       0 UNK        -0.5359 
      4 N          31.7709   23.5799    0.9013 N.am      1 UNK        -0.4318 
      5 CA         30.3741   24.0350    0.8746 C.3       1 UNK         0.0824 
      6 C6         29.3808   22.9013    0.4959 C.3       12 UNK        -0.0944 
      7 S7         29.4569   21.2902    1.3670 S.3       12 UNK        -0.2672 
      8 C8         30.3198   21.5408    2.9566 C.3       12 UNK         0.0333 
      9 C9         29.6212   22.5143    3.8958 C.ar      12 UNK        -0.0807 
     10 C10        30.3678   23.4986    4.5475 C.ar      12 UNK        -0.0894 
     11 C11        29.7556   24.3791    5.4421 C.ar      12 UNK        -0.0804 
     12 C12        28.3829   24.2812    5.6798 C.ar      12 UNK        -0.0824 
     13 C13        27.6249   23.3007    5.0330 C.ar      12 UNK        -0.0762 
     14 C14        28.2499   22.4135    4.1517 C.ar      12 UNK        -0.0782 
     15 C15        26.1287   23.1988    5.2789 C.3       12 UNK         0.0230 
     16 S16        25.1819   23.8391    3.8642 S.3       12 UNK        -0.2608 
     17 C17        25.6225   25.6121    3.8912 C.3       12 UNK        -0.0989 
     18 CA         26.6722   26.0079    2.8091 C.3       5 UNK         0.0716 
     19 N          26.3108   25.5906    1.4473 N.am      5 UNK        -0.4135 
     20 C          25.2006   25.9304    0.7776 C.2       4 UNK         0.5031 
     21 O          24.3242   26.6804    1.2129 O.2       4 UNK        -0.5229 
     22 CA         25.0583   25.3063   -0.6235 C.3       4 UNK         0.0329 
     23 CB         23.6448   25.4870   -1.2188 C.3       4 UNK        -0.2001 
     24 N          26.0787   25.7865   -1.5639 N.am      4 UNK        -0.4303 
     25 C          26.3013   27.0541   -1.9436 C.2       3 UNK         0.5044 
     26 O          25.7025   28.0343   -1.4995 O.2       3 UNK        -0.5152 
     27 CA         27.3973   27.2408   -2.9984 C.3       3 UNK         0.0319 
     28 CB         27.5001   28.6855   -3.5306 C.3       3 UNK        -0.2001 
     29 N          28.6781   26.8176   -2.4404 N.am      3 UNK        -0.4354 
     30 C          29.7060   26.3412   -3.1463 C.2       2 UNK         0.4964 
     31 O          29.6676   26.1460   -4.3617 O.2       2 UNK        -0.5047 
     32 CA         31.0098   26.0501   -2.3849 C.3       2 UNK         0.0288 
     33 CB         31.7245   27.3516   -1.9902 C.3       2 UNK        -0.2113 
     34 N          30.9028   25.1349   -1.2407 N.am      2 UNK        -0.4145 
     35 C          30.1827   25.2124   -0.1079 C.2       1 UNK         0.5006 
     36 O          29.3883   26.1162    0.1688 O.2       1 UNK        -0.5103 
     37 C          27.0147   27.5124    2.8428 C.2       5 UNK         0.5055 
     38 O          26.4473   28.2620    3.6422 O.2       5 UNK        -0.5220 
     39 N          27.9167   27.9394    1.9477 N.am      6 UNK        -0.4450 
     40 CA         28.3145   29.3352    1.7588 C.3       6 UNK         0.0367 
     41 CB         28.9080   29.4910    0.3489 C.3       6 UNK        -0.1929 
     42 C          29.2812   29.8143    2.8573 C.2       6 UNK         0.5070 
     43 O          30.4600   30.0446    2.5855 O.2       6 UNK        -0.5237 
     44 N          28.7662   29.9550    4.0845 N.am      7 UNK        -0.4739 
     45 CA         29.4917   30.4443    5.2604 C.3       7 UNK         0.0276 
     46 CB         28.5462   30.4457    6.4711 C.3       7 UNK        -0.1927 
     47 C          30.1042   31.8396    5.0444 C.2       7 UNK         0.5013 
     48 O          29.4973   32.6775    4.3728 O.2       7 UNK        -0.5193 
     49 N          31.3075   32.0466    5.5959 N.am      8 UNK        -0.4253 
     50 CA         32.1797   33.2266    5.4817 C.3       8 UNK         0.0242 
     51 CB         31.4893   34.5093    5.9870 C.3       8 UNK        -0.2000 
     52 C          32.7964   33.4335    4.0840 C.2       8 UNK         0.4948 
     53 O          33.9582   33.8350    4.0055 O.2       8 UNK        -0.5275 
     54 N          32.0401   33.1496    3.0147 N.am      9 UNK        -0.4246 
     55 CA         32.5231   33.1213    1.6317 C.3       9 UNK         0.0261 
     56 CB         31.3275   33.0998    0.6656 C.3       9 UNK        -0.1959 
     57 C          33.4579   31.9245    1.3855 C.2       9 UNK         0.5033 
     58 O          34.5385   32.1016    0.8203 O.2       9 UNK        -0.5390 
     59 N          33.0317   30.7439    1.8447 N.am      10 UNK        -0.4215 
     60 CA         33.8037   29.5094    1.9121 C.3       10 UNK         0.0240 
     61 CB         33.2350   28.5042    0.8954 C.3       10 UNK        -0.1982 
     62 C          33.7833   29.0227    3.3713 C.2       10 UNK         0.4970 
     63 O          33.9541   29.8500    4.2712 O.2       10 UNK        -0.4916 
     64 N          33.5943   27.7138    3.5946 N.am      11 UNK        -0.4279 
     65 CA         33.6409   27.0582    4.9131 C.3       11 UNK         0.1003 
     66 C          35.0399   27.1629    5.6000 C.2       11 UNK         0.5709 
     67 N          35.1347   26.9670    6.9091 N.am      11 UNK        -0.7358 
     68 O          36.0635   27.3595    4.9461 O.2       11 UNK        -0.4999 
     69 C69        32.4399   27.4687    5.8200 C.3       12 UNK        -0.0954 
     70 S70        30.8585   26.8836    5.1274 S.3       12 UNK        -0.2268 
     71 C71        30.5932   25.4165    6.1642 C.3       12 UNK         0.0203 
     72 H72        34.5752   23.5301    2.3711 H         1 UNK         0.0888 
     73 H73        34.1466   22.6507    0.9021 H         1 UNK         0.0888 
     74 H74        34.8520   24.2653    0.7898 H         1 UNK         0.0888 
     75 H75        31.9399   22.6630    0.5118 H         1 UNK         0.3017 
     76 H76        30.1211   24.4072    1.8688 H         1 UNK         0.0873 
     77 H77        28.3593   23.2647    0.6199 H         1 UNK         0.0745 
     78 H78        29.4739   22.6626   -0.5659 H         1 UNK         0.0745 
     79 H79        31.3547   21.8299    2.7799 H         1 UNK         0.0705 
     80 H80        30.3727   20.5750    3.4606 H         1 UNK         0.0705 
     81 H81        31.4308   23.5808    4.3645 H         1 UNK         0.1334 
     82 H82        27.9074   24.9667    6.3682 H         1 UNK         0.1417 
     83 H83        27.6641   21.6507    3.6567 H         1 UNK         0.1562 
     84 H84        25.8413   23.7350    6.1848 H         1 UNK         0.0748 
     85 H85        25.8580   22.1548    5.4432 H         1 UNK         0.0748 
     86 H86        25.9864   25.8772    4.8851 H         1 UNK         0.0940 
     87 H87        24.7012   26.1822    3.7603 H         1 UNK         0.0940 
     88 H88        27.6006   25.4859    3.0465 H         1 UNK         0.0703 
     89 H89        26.9804   24.9970    0.9830 H         1 UNK         0.3081 
     90 H90        25.2227   24.2339   -0.5047 H         1 UNK         0.0719 
     91 H91        23.3965   26.5382   -1.3693 H         1 UNK         0.0809 
     92 H92        23.5508   24.9801   -2.1791 H         1 UNK         0.0809 
     93 H93        22.8873   25.0674   -0.5555 H         1 UNK         0.0809 
     94 H94        26.6533   25.0698   -1.9855 H         1 UNK         0.2990 
     95 H95        27.1354   26.5908   -3.8363 H         1 UNK         0.0690 
     96 H96        28.2320   28.7608   -4.3348 H         1 UNK         0.0788 
     97 H97        27.7914   29.3868   -2.7488 H         1 UNK         0.0788 
     98 H98        26.5439   29.0222   -3.9331 H         1 UNK         0.0788 
     99 H99        28.7831   26.8703   -1.4295 H         1 UNK         0.2993 
    100 H100       31.6599   25.5396   -3.0978 H         1 UNK         0.0949 
    101 H101       31.1910   27.8843   -1.2061 H         1 UNK         0.0767 
    102 H102       32.7332   27.1449   -1.6338 H         1 UNK         0.0767 
    103 H103       31.8146   28.0274   -2.8419 H         1 UNK         0.0767 
    104 H104       31.4836   24.3128   -1.3263 H         1 UNK         0.3013 
    105 H105       28.3791   27.2601    1.3492 H         1 UNK         0.3121 
    106 H106       27.4217   29.9622    1.8098 H         1 UNK         0.0774 
    107 H107       29.1439   30.5335    0.1358 H         1 UNK         0.0815 
    108 H108       29.8275   28.9179    0.2412 H         1 UNK         0.0815 
    109 H109       28.2068   29.1549   -0.4134 H         1 UNK         0.0815 
    110 H110       27.7969   29.6853    4.2146 H         1 UNK         0.2987 
    111 H111       30.3027   29.7411    5.4520 H         1 UNK         0.0949 
    112 H112       27.6968   31.1125    6.3163 H         1 UNK         0.0806 
    113 H113       28.1579   29.4468    6.6716 H         1 UNK         0.0806 
    114 H114       29.0629   30.7785    7.3723 H         1 UNK         0.0806 
    115 H115       31.7254   31.2737    6.0959 H         1 UNK         0.3010 
    116 H116       33.0159   33.0263    6.1538 H         1 UNK         0.0829 
    117 H117       31.0971   34.3786    6.9955 H         1 UNK         0.0813 
    118 H118       32.1951   35.3404    6.0189 H         1 UNK         0.0813 
    119 H119       30.6649   34.8145    5.3423 H         1 UNK         0.0813 
    120 H120       31.0812   32.8618    3.1839 H         1 UNK         0.3038 
    121 H121       33.0921   34.0354    1.4487 H         1 UNK         0.0769 
    122 H122       31.6640   33.0671   -0.3715 H         1 UNK         0.0811 
    123 H123       30.7112   33.9918    0.7791 H         1 UNK         0.0811 
    124 H124       30.6907   32.2309    0.8307 H         1 UNK         0.0811 
    125 H125       32.1047   30.6808    2.2676 H         1 UNK         0.3204 
    126 H126       34.8482   29.7038    1.6613 H         1 UNK         0.0748 
    127 H127       33.8521   27.6075    0.8321 H         1 UNK         0.0771 
    128 H128       32.2187   28.1977    1.1495 H         1 UNK         0.0771 
    129 H129       33.2109   28.9453   -0.1005 H         1 UNK         0.0771 
    130 H130       33.4116   27.0904    2.8147 H         1 UNK         0.2980 
    131 H131       33.5387   25.9938    4.6987 H         1 UNK         0.0545 
    132 H132       36.0431   27.0126    7.3435 H         1 UNK         0.3459 
    133 H133       34.3204   26.7780    7.4709 H         1 UNK         0.3459 
    134 H134       32.5355   27.0678    6.8291 H         1 UNK         0.0616 
    135 H135       32.3924   28.5508    5.9408 H         1 UNK         0.0616 
    136 H136       31.5522   24.9697    6.4314 H         1 UNK         0.0634 
    137 H137       30.1205   25.7176    7.1003 H         1 UNK         0.0634 
@<TRIPOS>BOND
     1    1    2 1    
     2    1   72 1    
     3    1   73 1    
     4    1   74 1    
     5    2    3 2    
     6    2    4 am   BACKBONE|DICT|INTERRES
     7    4    5 1    
     8    4   75 1    
     9    5    6 1    
    10    5   35 1    
    11    5   76 1    
    12    6    7 1    
    13    6   77 1    
    14    6   78 1    
    15    7    8 1    
    16    8    9 1    
    17    8   79 1    
    18    8   80 1    
    19    9   10 ar   
    20    9   14 ar   
    21   10   11 ar   
    22   10   81 1    
    23   11   12 ar   
    24   11   71 1    
    25   12   13 ar   
    26   12   82 1    
    27   13   14 ar   
    28   13   15 1    
    29   14   83 1    
    30   15   16 1    
    31   15   84 1    
    32   15   85 1    
    33   16   17 1    
    34   17   18 1    
    35   17   86 1    
    36   17   87 1    
    37   18   19 1    
    38   18   37 1    
    39   18   88 1    
    40   19   20 am   BACKBONE|DICT|INTERRES
    41   19   89 1    
    42   20   21 2    
    43   20   22 1    
    44   22   23 1    
    45   22   24 1    
    46   22   90 1    
    47   23   91 1    
    48   23   92 1    
    49   23   93 1    
    50   24   25 am   BACKBONE|DICT|INTERRES
    51   24   94 1    
    52   25   26 2    
    53   25   27 1    
    54   27   28 1    
    55   27   29 1    
    56   27   95 1    
    57   28   96 1    
    58   28   97 1    
    59   28   98 1    
    60   29   30 am   BACKBONE|DICT|INTERRES
    61   29   99 1    
    62   30   31 2    
    63   30   32 1    
    64   32   33 1    
    65   32   34 1    
    66   32  100 1    
    67   33  101 1    
    68   33  102 1    
    69   33  103 1    
    70   34   35 am   BACKBONE|DICT|INTERRES
    71   34  104 1    
    72   35   36 2    
    73   37   38 2    
    74   37   39 am   BACKBONE|DICT|INTERRES
    75   39   40 1    
    76   39  105 1    
    77   40   41 1    
    78   40   42 1    
    79   40  106 1    
    80   41  107 1    
    81   41  108 1    
    82   41  109 1    
    83   42   43 2    
    84   42   44 am   BACKBONE|DICT|INTERRES
    85   44   45 1    
    86   44  110 1    
    87   45   46 1    
    88   45   47 1    
    89   45  111 1    
    90   46  112 1    
    91   46  113 1    
    92   46  114 1    
    93   47   48 2    
    94   47   49 am   BACKBONE|DICT|INTERRES
    95   49   50 1    
    96   49  115 1    
    97   50   51 1    
    98   50   52 1    
    99   50  116 1    
   100   51  117 1    
   101   51  118 1    
   102   51  119 1    
   103   52   53 2    
   104   52   54 am   BACKBONE|DICT|INTERRES
   105   54   55 1    
   106   54  120 1    
   107   55   56 1    
   108   55   57 1    
   109   55  121 1    
   110   56  122 1    
   111   56  123 1    
   112   56  124 1    
   113   57   58 2    
   114   57   59 am   BACKBONE|DICT|INTERRES
   115   59   60 1    
   116   59  125 1    
   117   60   61 1    
   118   60   62 1    
   119   60  126 1    
   120   61  127 1    
   121   61  128 1    
   122   61  129 1    
   123   62   63 2    
   124   62   64 am   BACKBONE|DICT|INTERRES
   125   64   65 1    
   126   64  130 1    
   127   65   66 1    
   128   65   69 1    
   129   65  131 1    
   130   66   67 am   BACKBONE|DICT|INTERRES
   131   66   68 2    
   132   67  132 1    
   133   67  133 1    
   134   69   70 1    
   135   69  134 1    
   136   69  135 1    
   137   70   71 1    
   138   71  136 1    
   139   71  137 1    
@<TRIPOS>SUBSTRUCTURE
     1 UNK         1 GROUP             0       ****    0 ROOT    
