@<TRIPOS>MOLECULE
3R136
137   139    1
SMALL
USER_CHARGES


@<TRIPOS>ATOM
      1 CA         30.3522   21.3079   -3.2182 C.3       0 UNK        -0.1979 
      2 C          30.0037   22.2039   -2.0392 C.2       0 UNK         0.4864 
      3 O          30.0815   23.4262   -2.1568 O.2       0 UNK        -0.5359 
      4 N          29.6202   21.6046   -0.9042 N.am      1 UNK        -0.4318 
      5 CA         29.2605   22.3077    0.3340 C.3       1 UNK         0.0824 
      6 C6         29.3620   21.3743    1.5671 C.3       12 UNK        -0.0944 
      7 S7         31.0142   20.6624    1.9141 S.3       12 UNK        -0.2672 
      8 C8         32.2192   21.9720    1.4734 C.3       12 UNK         0.0333 
      9 C9         32.0458   23.3215    2.1773 C.ar      12 UNK        -0.0807 
     10 C10        32.6705   24.4452    1.6267 C.ar      12 UNK        -0.0894 
     11 C11        32.5229   25.7105    2.2041 C.ar      12 UNK        -0.0804 
     12 C12        31.7091   25.8524    3.3342 C.ar      12 UNK        -0.0824 
     13 C13        31.0908   24.7388    3.9087 C.ar      12 UNK        -0.0762 
     14 C14        31.2843   23.4770    3.3418 C.ar      12 UNK        -0.0782 
     15 C15        30.2017   24.8798    5.1350 C.3       12 UNK         0.0230 
     16 S16        28.4443   24.7618    4.6694 S.3       12 UNK        -0.2608 
     17 C17        27.8302   26.4498    4.9878 C.3       12 UNK        -0.0989 
     18 CA         28.4500   27.5454    4.0847 C.3       5 UNK         0.0716 
     19 N          28.3846   27.2081    2.6586 N.am      5 UNK        -0.4135 
     20 C          28.9970   27.8878    1.6800 C.2       4 UNK         0.5031 
     21 O          29.7149   28.8698    1.8757 O.2       4 UNK        -0.5229 
     22 CA         28.7077   27.4469    0.2351 C.3       4 UNK         0.0329 
     23 CB         29.7336   26.4011   -0.2225 C.3       4 UNK        -0.2001 
     24 N          27.3572   26.9183    0.0111 N.am      4 UNK        -0.4303 
     25 C          26.1941   27.5122    0.3112 C.2       3 UNK         0.5044 
     26 O          26.1207   28.5852    0.9104 O.2       3 UNK        -0.5152 
     27 CA         24.8845   26.7999   -0.0840 C.3       3 UNK         0.0319 
     28 CB         24.2760   27.4402   -1.3467 C.3       3 UNK        -0.2001 
     29 N          24.9732   25.3349   -0.2070 N.am      3 UNK        -0.4354 
     30 C          25.6542   24.6063   -1.1033 C.2       2 UNK         0.4964 
     31 O          26.3115   25.0820   -2.0302 O.2       2 UNK        -0.5047 
     32 CA         25.6581   23.0841   -0.8829 C.3       2 UNK         0.0288 
     33 CB         25.0105   22.3548   -2.0718 C.3       2 UNK        -0.2113 
     34 N          27.0161   22.5700   -0.6798 N.am      2 UNK        -0.4145 
     35 C          27.8639   22.9653    0.2843 C.2       1 UNK         0.5006 
     36 O          27.5764   23.8092    1.1353 O.2       1 UNK        -0.5103 
     37 C          27.8377   28.9224    4.4274 C.2       5 UNK         0.5055 
     38 O          28.1840   29.4737    5.4724 O.2       5 UNK        -0.5220 
     39 N          26.9549   29.4491    3.5671 N.am      6 UNK        -0.4450 
     40 CA         26.3720   30.7854    3.6822 C.3       6 UNK         0.0367 
     41 CB         24.8399   30.6788    3.6044 C.3       6 UNK        -0.1929 
     42 C          26.8997   31.7157    2.5799 C.2       6 UNK         0.5070 
     43 O          27.1748   32.8819    2.8611 O.2       6 UNK        -0.5237 
     44 N          27.0154   31.1997    1.3470 N.am      7 UNK        -0.4739 
     45 CA         27.4089   31.9597    0.1577 C.3       7 UNK         0.0276 
     46 CB         27.0902   31.1413   -1.1039 C.3       7 UNK        -0.1927 
     47 C          28.8802   32.4050    0.1630 C.2       7 UNK         0.5013 
     48 O          29.1665   33.5108   -0.2985 O.2       7 UNK        -0.5193 
     49 N          29.7752   31.5545    0.6822 N.am      8 UNK        -0.4253 
     50 CA         31.1858   31.8743    0.9007 C.3       8 UNK         0.0242 
     51 CB         32.0822   30.7565    0.3364 C.3       8 UNK        -0.2000 
     52 C          31.4193   32.0962    2.3993 C.2       8 UNK         0.4948 
     53 O          31.8073   33.2005    2.7834 O.2       8 UNK        -0.5275 
     54 N          31.1233   31.0579    3.1985 N.am      9 UNK        -0.4246 
     55 CA         31.2275   30.9651    4.6617 C.3       9 UNK         0.0261 
     56 CB         30.3433   32.0295    5.3446 C.3       9 UNK        -0.1959 
     57 C          32.6701   31.0092    5.2070 C.2       9 UNK         0.5033 
     58 O          33.5829   31.5176    4.5533 O.2       9 UNK        -0.5390 
     59 N          32.8396   30.4636    6.4233 N.am      10 UNK        -0.4215 
     60 CA         34.0878   30.3911    7.2041 C.3       10 UNK         0.0240 
     61 CB         34.4809   31.7934    7.7173 C.3       10 UNK        -0.1982 
     62 C          35.2478   29.6781    6.4732 C.2       10 UNK         0.4970 
     63 O          36.4099   30.0528    6.6439 O.2       10 UNK        -0.4916 
     64 N          34.9020   28.6771    5.6566 N.am      11 UNK        -0.4279 
     65 CA         35.8173   27.9232    4.7907 C.3       11 UNK         0.1003 
     66 C          36.8037   27.0252    5.5854 C.2       11 UNK         0.5709 
     67 N          38.0003   26.8028    5.0588 N.am      11 UNK        -0.7358 
     68 O          36.4827   26.4986    6.6499 O.2       11 UNK        -0.4999 
     69 C69        35.0333   27.0936    3.7414 C.3       12 UNK        -0.0954 
     70 S70        33.8796   28.1199    2.7671 S.3       12 UNK        -0.2268 
     71 C71        33.2324   26.9073    1.5718 C.3       12 UNK         0.0203 
     72 H72        30.2429   20.2512   -2.9747 H         1 UNK         0.0888 
     73 H73        29.7018   21.5307   -4.0637 H         1 UNK         0.0888 
     74 H74        31.3831   21.4795   -3.5267 H         1 UNK         0.0888 
     75 H75        29.5952   20.5954   -0.8567 H         1 UNK         0.3017 
     76 H76        29.9570   23.1358    0.4646 H         1 UNK         0.0873 
     77 H77        29.0452   21.9044    2.4674 H         1 UNK         0.0745 
     78 H78        28.6635   20.5418    1.4631 H         1 UNK         0.0745 
     79 H79        33.2182   21.5983    1.7009 H         1 UNK         0.0705 
     80 H80        32.1911   22.1157    0.3924 H         1 UNK         0.0705 
     81 H81        33.2746   24.3336    0.7363 H         1 UNK         0.1334 
     82 H82        31.5678   26.8301    3.7706 H         1 UNK         0.1417 
     83 H83        30.8099   22.6242    3.8049 H         1 UNK         0.1562 
     84 H84        30.4026   25.8144    5.6600 H         1 UNK         0.0748 
     85 H85        30.4315   24.0820    5.8428 H         1 UNK         0.0748 
     86 H86        28.0047   26.6798    6.0411 H         1 UNK         0.0940 
     87 H87        26.7455   26.4282    4.8634 H         1 UNK         0.0940 
     88 H88        29.5070   27.6275    4.3372 H         1 UNK         0.0703 
     89 H89        27.8439   26.3899    2.4131 H         1 UNK         0.3081 
     90 H90        28.8149   28.3250   -0.4025 H         1 UNK         0.0719 
     91 H91        29.7768   25.5516    0.4600 H         1 UNK         0.0809 
     92 H92        29.5041   26.0203   -1.2181 H         1 UNK         0.0809 
     93 H93        30.7314   26.8327   -0.2718 H         1 UNK         0.0809 
     94 H94        27.2974   26.0527   -0.5124 H         1 UNK         0.2990 
     95 H95        24.1887   26.9792    0.7371 H         1 UNK         0.0690 
     96 H96        23.3145   26.9913   -1.5956 H         1 UNK         0.0788 
     97 H97        24.9295   27.3382   -2.2135 H         1 UNK         0.0788 
     98 H98        24.1062   28.5074   -1.1967 H         1 UNK         0.0788 
     99 H99        24.5094   24.8295    0.5358 H         1 UNK         0.2993 
    100 H100       25.0821   22.8523    0.0154 H         1 UNK         0.0949 
    101 H101       24.9538   21.2802   -1.8966 H         1 UNK         0.0767 
    102 H102       23.9922   22.7091   -2.2385 H         1 UNK         0.0767 
    103 H103       25.5670   22.5163   -2.9962 H         1 UNK         0.0767 
    104 H104       27.3471   21.8918   -1.3494 H         1 UNK         0.3013 
    105 H105       26.7295   28.9369    2.7196 H         1 UNK         0.3121 
    106 H106       26.6299   31.2365    4.6429 H         1 UNK         0.0774 
    107 H107       24.5106   30.2337    2.6644 H         1 UNK         0.0815 
    108 H108       24.3759   31.6631    3.6807 H         1 UNK         0.0815 
    109 H109       24.4453   30.0706    4.4184 H         1 UNK         0.0815 
    110 H110       26.7198   30.2382    1.1887 H         1 UNK         0.2987 
    111 H111       26.7986   32.8654    0.1310 H         1 UNK         0.0949 
    112 H112       27.6615   30.2145   -1.1415 H         1 UNK         0.0806 
    113 H113       26.0321   30.8831   -1.1528 H         1 UNK         0.0806 
    114 H114       27.3277   31.7070   -2.0059 H         1 UNK         0.0806 
    115 H115       29.4518   30.6727    1.0665 H         1 UNK         0.3010 
    116 H116       31.4547   32.7986    0.3846 H         1 UNK         0.0829 
    117 H117       31.8778   29.7885    0.7913 H         1 UNK         0.0813 
    118 H118       31.9480   30.6513   -0.7401 H         1 UNK         0.0813 
    119 H119       33.1354   30.9789    0.5127 H         1 UNK         0.0813 
    120 H120       30.7997   30.2085    2.7424 H         1 UNK         0.3038 
    121 H121       30.8237   29.9829    4.9102 H         1 UNK         0.0769 
    122 H122       30.2702   31.8506    6.4177 H         1 UNK         0.0811 
    123 H123       30.7406   33.0361    5.2112 H         1 UNK         0.0811 
    124 H124       29.3282   32.0154    4.9471 H         1 UNK         0.0811 
    125 H125       32.0278   30.0667    6.8774 H         1 UNK         0.3204 
    126 H126       33.8659   29.7749    8.0766 H         1 UNK         0.0748 
    127 H127       35.3271   31.7392    8.4034 H         1 UNK         0.0771 
    128 H128       34.7662   32.4561    6.8994 H         1 UNK         0.0771 
    129 H129       33.6589   32.2631    8.2575 H         1 UNK         0.0771 
    130 H130       33.9277   28.4329    5.5781 H         1 UNK         0.2980 
    131 H131       36.4133   28.6617    4.2504 H         1 UNK         0.0545 
    132 H132       38.2697   27.2191    4.1809 H         1 UNK         0.3459 
    133 H133       38.6501   26.2108    5.5523 H         1 UNK         0.3459 
    134 H134       35.7211   26.6039    3.0497 H         1 UNK         0.0616 
    135 H135       34.4676   26.2990    4.2312 H         1 UNK         0.0616 
    136 H136       34.0608   26.5727    0.9455 H         1 UNK         0.0634 
    137 H137       32.5363   27.4243    0.9141 H         1 UNK         0.0634 
@<TRIPOS>BOND
     1    1    2 1    
     2    1   72 1    
     3    1   73 1    
     4    1   74 1    
     5    2    3 2    
     6    2    4 am   BACKBONE|DICT|INTERRES
     7    4    5 1    
     8    4   75 1    
     9    5    6 1    
    10    5   35 1    
    11    5   76 1    
    12    6    7 1    
    13    6   77 1    
    14    6   78 1    
    15    7    8 1    
    16    8    9 1    
    17    8   79 1    
    18    8   80 1    
    19    9   10 ar   
    20    9   14 ar   
    21   10   11 ar   
    22   10   81 1    
    23   11   12 ar   
    24   11   71 1    
    25   12   13 ar   
    26   12   82 1    
    27   13   14 ar   
    28   13   15 1    
    29   14   83 1    
    30   15   16 1    
    31   15   84 1    
    32   15   85 1    
    33   16   17 1    
    34   17   18 1    
    35   17   86 1    
    36   17   87 1    
    37   18   19 1    
    38   18   37 1    
    39   18   88 1    
    40   19   20 am   BACKBONE|DICT|INTERRES
    41   19   89 1    
    42   20   21 2    
    43   20   22 1    
    44   22   23 1    
    45   22   24 1    
    46   22   90 1    
    47   23   91 1    
    48   23   92 1    
    49   23   93 1    
    50   24   25 am   BACKBONE|DICT|INTERRES
    51   24   94 1    
    52   25   26 2    
    53   25   27 1    
    54   27   28 1    
    55   27   29 1    
    56   27   95 1    
    57   28   96 1    
    58   28   97 1    
    59   28   98 1    
    60   29   30 am   BACKBONE|DICT|INTERRES
    61   29   99 1    
    62   30   31 2    
    63   30   32 1    
    64   32   33 1    
    65   32   34 1    
    66   32  100 1    
    67   33  101 1    
    68   33  102 1    
    69   33  103 1    
    70   34   35 am   BACKBONE|DICT|INTERRES
    71   34  104 1    
    72   35   36 2    
    73   37   38 2    
    74   37   39 am   BACKBONE|DICT|INTERRES
    75   39   40 1    
    76   39  105 1    
    77   40   41 1    
    78   40   42 1    
    79   40  106 1    
    80   41  107 1    
    81   41  108 1    
    82   41  109 1    
    83   42   43 2    
    84   42   44 am   BACKBONE|DICT|INTERRES
    85   44   45 1    
    86   44  110 1    
    87   45   46 1    
    88   45   47 1    
    89   45  111 1    
    90   46  112 1    
    91   46  113 1    
    92   46  114 1    
    93   47   48 2    
    94   47   49 am   BACKBONE|DICT|INTERRES
    95   49   50 1    
    96   49  115 1    
    97   50   51 1    
    98   50   52 1    
    99   50  116 1    
   100   51  117 1    
   101   51  118 1    
   102   51  119 1    
   103   52   53 2    
   104   52   54 am   BACKBONE|DICT|INTERRES
   105   54   55 1    
   106   54  120 1    
   107   55   56 1    
   108   55   57 1    
   109   55  121 1    
   110   56  122 1    
   111   56  123 1    
   112   56  124 1    
   113   57   58 2    
   114   57   59 am   BACKBONE|DICT|INTERRES
   115   59   60 1    
   116   59  125 1    
   117   60   61 1    
   118   60   62 1    
   119   60  126 1    
   120   61  127 1    
   121   61  128 1    
   122   61  129 1    
   123   62   63 2    
   124   62   64 am   BACKBONE|DICT|INTERRES
   125   64   65 1    
   126   64  130 1    
   127   65   66 1    
   128   65   69 1    
   129   65  131 1    
   130   66   67 am   BACKBONE|DICT|INTERRES
   131   66   68 2    
   132   67  132 1    
   133   67  133 1    
   134   69   70 1    
   135   69  134 1    
   136   69  135 1    
   137   70   71 1    
   138   71  136 1    
   139   71  137 1    
@<TRIPOS>SUBSTRUCTURE
     1 UNK         1 GROUP             0       ****    0 ROOT    
