@<TRIPOS>MOLECULE
3R136
137   139    1
SMALL
USER_CHARGES


@<TRIPOS>ATOM
      1 CA         33.3710   26.6790   -0.7653 C.3       0 UNK        -0.1979 
      2 C          32.1384   25.8656   -1.1314 C.2       0 UNK         0.4864 
      3 O          31.7420   25.8492   -2.2971 O.2       0 UNK        -0.5359 
      4 N          31.5265   25.2025   -0.1397 N.am      1 UNK        -0.4318 
      5 CA         30.4109   24.2400   -0.2252 C.3       1 UNK         0.0824 
      6 C6         30.6934   22.9963   -1.1217 C.3       12 UNK        -0.0944 
      7 S7         32.3744   22.2860   -0.9676 S.3       12 UNK        -0.2672 
      8 C8         32.2293   21.1756    0.4707 C.3       12 UNK         0.0333 
      9 C9         31.9208   21.9271    1.7592 C.ar      12 UNK        -0.0807 
     10 C10        32.7171   23.0032    2.1673 C.ar      12 UNK        -0.0894 
     11 C11        32.3892   23.7400    3.3095 C.ar      12 UNK        -0.0804 
     12 C12        31.2836   23.3590    4.0762 C.ar      12 UNK        -0.0824 
     13 C13        30.5007   22.2630    3.6972 C.ar      12 UNK        -0.0762 
     14 C14        30.8195   21.5573    2.5346 C.ar      12 UNK        -0.0782 
     15 C15        29.3096   21.8279    4.5364 C.3       12 UNK         0.0230 
     16 S16        27.7561   22.5481    3.9201 S.3       12 UNK        -0.2608 
     17 C17        27.8889   24.2587    4.5368 C.3       12 UNK        -0.0989 
     18 CA         27.9335   25.3177    3.3967 C.3       5 UNK         0.0716 
     19 N          26.7335   25.3093    2.5499 N.am      5 UNK        -0.4135 
     20 C          25.4754   25.5397    2.9585 C.2       4 UNK         0.5031 
     21 O          25.1639   25.8396    4.1131 O.2       4 UNK        -0.5229 
     22 CA         24.3807   25.4042    1.8828 C.3       4 UNK         0.0329 
     23 CB         22.9493   25.4750    2.4584 C.3       4 UNK        -0.2001 
     24 N          24.5558   26.3746    0.7991 N.am      4 UNK        -0.4303 
     25 C          24.5788   27.7144    0.8913 C.2       3 UNK         0.5044 
     26 O          24.3562   28.3453    1.9254 O.2       3 UNK        -0.5152 
     27 CA         24.9244   28.4689   -0.4106 C.3       3 UNK         0.0319 
     28 CB         25.3990   29.9173   -0.1624 C.3       3 UNK        -0.2001 
     29 N          25.8884   27.7513   -1.2583 N.am      3 UNK        -0.4354 
     30 C          27.1180   27.3480   -0.9060 C.2       2 UNK         0.4964 
     31 O          27.6139   27.5435    0.2073 O.2       2 UNK        -0.5047 
     32 CA         27.9155   26.6161   -1.9988 C.3       2 UNK         0.0288 
     33 CB         28.4334   27.6193   -3.0437 C.3       2 UNK        -0.2113 
     34 N          29.0578   25.8546   -1.4924 N.am      2 UNK        -0.4145 
     35 C          29.0471   24.8743   -0.5807 C.2       1 UNK         0.5006 
     36 O          28.0248   24.4680   -0.0217 O.2       1 UNK        -0.5103 
     37 C          28.2432   26.7329    3.9321 C.2       5 UNK         0.5055 
     38 O          28.4202   26.8992    5.1414 O.2       5 UNK        -0.5220 
     39 N          28.2971   27.7297    3.0375 N.am      6 UNK        -0.4450 
     40 CA         28.5959   29.1165    3.4050 C.3       6 UNK         0.0367 
     41 CB         27.2905   29.8900    3.6576 C.3       6 UNK        -0.1929 
     42 C          29.4686   29.8286    2.3674 C.2       6 UNK         0.5070 
     43 O          30.4230   30.5000    2.7563 O.2       6 UNK        -0.5237 
     44 N          29.1387   29.6809    1.0763 N.am      7 UNK        -0.4739 
     45 CA         29.7506   30.3524   -0.0773 C.3       7 UNK         0.0276 
     46 CB         31.0944   29.6774   -0.4227 C.3       7 UNK        -0.1927 
     47 C          29.8283   31.8813    0.1244 C.2       7 UNK         0.5013 
     48 O          28.7926   32.4985    0.3815 O.2       7 UNK        -0.5193 
     49 N          31.0342   32.4593    0.0301 N.am      8 UNK        -0.4253 
     50 CA         31.3132   33.8388    0.4335 C.3       8 UNK         0.0242 
     51 CB         32.6023   34.3346   -0.2452 C.3       8 UNK        -0.2000 
     52 C          31.4020   33.9546    1.9657 C.2       8 UNK         0.4948 
     53 O          30.6647   34.7440    2.5573 O.2       8 UNK        -0.5275 
     54 N          32.2895   33.1524    2.5696 N.am      9 UNK        -0.4246 
     55 CA         32.5142   33.0345    4.0124 C.3       9 UNK         0.0261 
     56 CB         33.1352   34.3290    4.5860 C.3       9 UNK        -0.1959 
     57 C          33.3817   31.7931    4.2869 C.2       9 UNK         0.5033 
     58 O          34.4043   31.8916    4.9689 O.2       9 UNK        -0.5390 
     59 N          32.9900   30.6509    3.7109 N.am      10 UNK        -0.4215 
     60 CA         33.6966   29.3763    3.8262 C.3       10 UNK         0.0240 
     61 CB         33.5353   28.5920    2.5138 C.3       10 UNK        -0.1982 
     62 C          33.1421   28.5638    5.0035 C.2       10 UNK         0.4970 
     63 O          31.9247   28.5154    5.1869 O.2       10 UNK        -0.4916 
     64 N          34.0468   27.9114    5.7452 N.am      11 UNK        -0.4279 
     65 CA         33.7607   27.0056    6.8757 C.3       11 UNK         0.1003 
     66 C          33.0538   27.6721    8.0977 C.2       11 UNK         0.5709 
     67 N          33.0940   28.9916    8.2431 N.am      11 UNK        -0.7358 
     68 O          32.4950   26.9866    8.9511 O.2       11 UNK        -0.4999 
     69 C69        33.0840   25.6753    6.4273 C.3       12 UNK        -0.0954 
     70 S70        34.1182   24.7421    5.2445 S.3       12 UNK        -0.2268 
     71 C71        33.2093   24.9669    3.6847 C.3       12 UNK         0.0203 
     72 H72        33.2366   27.7232   -1.0442 H         1 UNK         0.0888 
     73 H73        33.5870   26.6340    0.3012 H         1 UNK         0.0888 
     74 H74        34.2395   26.2956   -1.3001 H         1 UNK         0.0888 
     75 H75        31.9002   25.3013    0.7925 H         1 UNK         0.3017 
     76 H76        30.2860   23.8784    0.7952 H         1 UNK         0.0873 
     77 H77        29.9617   22.2121   -0.9185 H         1 UNK         0.0745 
     78 H78        30.5646   23.2583   -2.1737 H         1 UNK         0.0745 
     79 H79        33.1695   20.6369    0.5954 H         1 UNK         0.0705 
     80 H80        31.4673   20.4236    0.2598 H         1 UNK         0.0705 
     81 H81        33.5707   23.2886    1.5674 H         1 UNK         0.1334 
     82 H82        31.0384   23.9161    4.9691 H         1 UNK         0.1417 
     83 H83        30.2011   20.7229    2.2316 H         1 UNK         0.1562 
     84 H84        29.4560   22.0918    5.5850 H         1 UNK         0.0748 
     85 H85        29.2231   20.7405    4.5119 H         1 UNK         0.0748 
     86 H86        28.7751   24.3404    5.1663 H         1 UNK         0.0940 
     87 H87        27.0499   24.4433    5.2090 H         1 UNK         0.0940 
     88 H88        28.7686   25.0598    2.7435 H         1 UNK         0.0703 
     89 H89        26.9038   25.0829    1.5748 H         1 UNK         0.3081 
     90 H90        24.5045   24.4151    1.4386 H         1 UNK         0.0719 
     91 H91        22.7487   26.4331    2.9389 H         1 UNK         0.0809 
     92 H92        22.2010   25.3277    1.6797 H         1 UNK         0.0809 
     93 H93        22.7940   24.6985    3.2084 H         1 UNK         0.0809 
     94 H94        24.7611   25.9769   -0.1065 H         1 UNK         0.2990 
     95 H95        23.9947   28.5223   -0.9789 H         1 UNK         0.0690 
     96 H96        25.5873   30.4380   -1.1011 H         1 UNK         0.0788 
     97 H97        26.3156   29.9512    0.4249 H         1 UNK         0.0788 
     98 H98        24.6455   30.4915    0.3781 H         1 UNK         0.0788 
     99 H99        25.5704   27.5471   -2.1962 H         1 UNK         0.2993 
    100 H100       27.2444   25.9063   -2.4865 H         1 UNK         0.0949 
    101 H101       29.1412   28.3245   -2.6065 H         1 UNK         0.0767 
    102 H102       28.9383   27.1091   -3.8645 H         1 UNK         0.0767 
    103 H103       27.6200   28.2005   -3.4803 H         1 UNK         0.0767 
    104 H104       29.9655   26.0716   -1.8982 H         1 UNK         0.3013 
    105 H105       28.1264   27.5358    2.0532 H         1 UNK         0.3121 
    106 H106       29.1761   29.1302    4.3309 H         1 UNK         0.0774 
    107 H107       27.4930   30.9359    3.8921 H         1 UNK         0.0815 
    108 H108       26.6335   29.8688    2.7883 H         1 UNK         0.0815 
    109 H109       26.7397   29.4683    4.4985 H         1 UNK         0.0815 
    110 H110       28.3670   29.0611    0.8437 H         1 UNK         0.2987 
    111 H111       29.0733   30.1958   -0.9180 H         1 UNK         0.0949 
    112 H112       30.9503   28.6095   -0.5830 H         1 UNK         0.0806 
    113 H113       31.5203   30.0811   -1.3422 H         1 UNK         0.0806 
    114 H114       31.8295   29.7945    0.3732 H         1 UNK         0.0806 
    115 H115       31.8255   31.8776   -0.2014 H         1 UNK         0.3010 
    116 H116       30.4930   34.4770    0.0966 H         1 UNK         0.0829 
    117 H117       32.5011   34.3333   -1.3307 H         1 UNK         0.0813 
    118 H118       32.8299   35.3584    0.0554 H         1 UNK         0.0813 
    119 H119       33.4667   33.7206    0.0095 H         1 UNK         0.0813 
    120 H120       32.8398   32.5256    1.9997 H         1 UNK         0.3038 
    121 H121       31.5506   32.8633    4.4967 H         1 UNK         0.0769 
    122 H122       33.3231   34.2324    5.6561 H         1 UNK         0.0811 
    123 H123       32.4762   35.1874    4.4588 H         1 UNK         0.0811 
    124 H124       34.0860   34.5631    4.1060 H         1 UNK         0.0811 
    125 H125       32.0599   30.6146    3.2850 H         1 UNK         0.3204 
    126 H126       34.7619   29.5609    3.9824 H         1 UNK         0.0748 
    127 H127       34.1036   27.6624    2.5478 H         1 UNK         0.0771 
    128 H128       32.4923   28.3355    2.3210 H         1 UNK         0.0771 
    129 H129       33.9054   29.1637    1.6628 H         1 UNK         0.0771 
    130 H130       35.0254   28.0198    5.5218 H         1 UNK         0.2980 
    131 H131       34.7414   26.7364    7.2693 H         1 UNK         0.0545 
    132 H132       32.6468   29.4132    9.0415 H         1 UNK         0.3459 
    133 H133       33.5560   29.5679    7.5582 H         1 UNK         0.3459 
    134 H134       32.0948   25.8659    6.0089 H         1 UNK         0.0616 
    135 H135       32.9244   25.0187    7.2840 H         1 UNK         0.0616 
    136 H136       32.5563   25.8384    3.7411 H         1 UNK         0.0634 
    137 H137       33.9380   25.1878    2.9036 H         1 UNK         0.0634 
@<TRIPOS>BOND
     1    1    2 1    
     2    1   72 1    
     3    1   73 1    
     4    1   74 1    
     5    2    3 2    
     6    2    4 am   BACKBONE|DICT|INTERRES
     7    4    5 1    
     8    4   75 1    
     9    5    6 1    
    10    5   35 1    
    11    5   76 1    
    12    6    7 1    
    13    6   77 1    
    14    6   78 1    
    15    7    8 1    
    16    8    9 1    
    17    8   79 1    
    18    8   80 1    
    19    9   10 ar   
    20    9   14 ar   
    21   10   11 ar   
    22   10   81 1    
    23   11   12 ar   
    24   11   71 1    
    25   12   13 ar   
    26   12   82 1    
    27   13   14 ar   
    28   13   15 1    
    29   14   83 1    
    30   15   16 1    
    31   15   84 1    
    32   15   85 1    
    33   16   17 1    
    34   17   18 1    
    35   17   86 1    
    36   17   87 1    
    37   18   19 1    
    38   18   37 1    
    39   18   88 1    
    40   19   20 am   BACKBONE|DICT|INTERRES
    41   19   89 1    
    42   20   21 2    
    43   20   22 1    
    44   22   23 1    
    45   22   24 1    
    46   22   90 1    
    47   23   91 1    
    48   23   92 1    
    49   23   93 1    
    50   24   25 am   BACKBONE|DICT|INTERRES
    51   24   94 1    
    52   25   26 2    
    53   25   27 1    
    54   27   28 1    
    55   27   29 1    
    56   27   95 1    
    57   28   96 1    
    58   28   97 1    
    59   28   98 1    
    60   29   30 am   BACKBONE|DICT|INTERRES
    61   29   99 1    
    62   30   31 2    
    63   30   32 1    
    64   32   33 1    
    65   32   34 1    
    66   32  100 1    
    67   33  101 1    
    68   33  102 1    
    69   33  103 1    
    70   34   35 am   BACKBONE|DICT|INTERRES
    71   34  104 1    
    72   35   36 2    
    73   37   38 2    
    74   37   39 am   BACKBONE|DICT|INTERRES
    75   39   40 1    
    76   39  105 1    
    77   40   41 1    
    78   40   42 1    
    79   40  106 1    
    80   41  107 1    
    81   41  108 1    
    82   41  109 1    
    83   42   43 2    
    84   42   44 am   BACKBONE|DICT|INTERRES
    85   44   45 1    
    86   44  110 1    
    87   45   46 1    
    88   45   47 1    
    89   45  111 1    
    90   46  112 1    
    91   46  113 1    
    92   46  114 1    
    93   47   48 2    
    94   47   49 am   BACKBONE|DICT|INTERRES
    95   49   50 1    
    96   49  115 1    
    97   50   51 1    
    98   50   52 1    
    99   50  116 1    
   100   51  117 1    
   101   51  118 1    
   102   51  119 1    
   103   52   53 2    
   104   52   54 am   BACKBONE|DICT|INTERRES
   105   54   55 1    
   106   54  120 1    
   107   55   56 1    
   108   55   57 1    
   109   55  121 1    
   110   56  122 1    
   111   56  123 1    
   112   56  124 1    
   113   57   58 2    
   114   57   59 am   BACKBONE|DICT|INTERRES
   115   59   60 1    
   116   59  125 1    
   117   60   61 1    
   118   60   62 1    
   119   60  126 1    
   120   61  127 1    
   121   61  128 1    
   122   61  129 1    
   123   62   63 2    
   124   62   64 am   BACKBONE|DICT|INTERRES
   125   64   65 1    
   126   64  130 1    
   127   65   66 1    
   128   65   69 1    
   129   65  131 1    
   130   66   67 am   BACKBONE|DICT|INTERRES
   131   66   68 2    
   132   67  132 1    
   133   67  133 1    
   134   69   70 1    
   135   69  134 1    
   136   69  135 1    
   137   70   71 1    
   138   71  136 1    
   139   71  137 1    
@<TRIPOS>SUBSTRUCTURE
     1 UNK         1 GROUP             0       ****    0 ROOT    
