@<TRIPOS>MOLECULE
3R136
137   139    1
SMALL
USER_CHARGES


@<TRIPOS>ATOM
      1 CA         28.6452   19.1313   -0.2261 C.3       0 UNK        -0.1979 
      2 C          28.8203   20.4780   -0.9112 C.2       0 UNK         0.4864 
      3 O          28.2423   20.7068   -1.9754 O.2       0 UNK        -0.5359 
      4 N          29.6043   21.3791   -0.3060 N.am      1 UNK        -0.4318 
      5 CA         29.9236   22.7245   -0.7993 C.3       1 UNK         0.0824 
      6 C6         31.2235   23.2938   -0.1552 C.3       12 UNK        -0.0944 
      7 S7         32.6368   22.1371   -0.0122 S.3       12 UNK        -0.2672 
      8 C8         32.4579   21.3708    1.6463 C.3       12 UNK         0.0333 
      9 C9         31.9128   22.3166    2.7111 C.ar      12 UNK        -0.0807 
     10 C10        32.7302   23.2985    3.2803 C.ar      12 UNK        -0.0894 
     11 C11        32.2061   24.2038    4.2100 C.ar      12 UNK        -0.0804 
     12 C12        30.8531   24.1318    4.5591 C.ar      12 UNK        -0.0824 
     13 C13        30.0280   23.1536    3.9985 C.ar      12 UNK        -0.0762 
     14 C14        30.5704   22.2345    3.0962 C.ar      12 UNK        -0.0782 
     15 C15        28.5471   23.0898    4.3439 C.3       12 UNK         0.0230 
     16 S16        27.5315   23.4968    2.8878 S.3       12 UNK        -0.2608 
     17 C17        26.6481   25.0031    3.4056 C.3       12 UNK        -0.0989 
     18 CA         27.5226   26.2792    3.5128 C.3       5 UNK         0.0716 
     19 N          28.3079   26.5714    2.3056 N.am      5 UNK        -0.4135 
     20 C          29.2141   27.5598    2.2254 C.2       4 UNK         0.5031 
     21 O          29.5672   28.2315    3.1926 O.2       4 UNK        -0.5229 
     22 CA         29.7925   27.8984    0.8414 C.3       4 UNK         0.0329 
     23 CB         31.1636   27.2333    0.6449 C.3       4 UNK        -0.2001 
     24 N          28.9017   27.5219   -0.2587 N.am      4 UNK        -0.4303 
     25 C          27.7825   28.1738   -0.6006 C.2       3 UNK         0.5044 
     26 O          27.3664   29.1714   -0.0148 O.2       3 UNK        -0.5152 
     27 CA         26.9696   27.5974   -1.7732 C.3       3 UNK         0.0319 
     28 CB         27.5846   28.0170   -3.1176 C.3       3 UNK        -0.2001 
     29 N          26.8474   26.1387   -1.7203 N.am      3 UNK        -0.4354 
     30 C          26.1635   25.4767   -0.7765 C.2       2 UNK         0.4964 
     31 O          25.5204   26.0306    0.1164 O.2       2 UNK        -0.5047 
     32 CA         26.2353   23.9380   -0.8089 C.3       2 UNK         0.0288 
     33 CB         25.1838   23.3719   -1.7767 C.3       2 UNK        -0.2113 
     34 N          27.5474   23.3467   -1.1196 N.am      2 UNK        -0.4145 
     35 C          28.7307   23.6912   -0.5892 C.2       1 UNK         0.5006 
     36 O          28.8908   24.7093    0.0823 O.2       1 UNK        -0.5103 
     37 C          26.6359   27.4783    3.9185 C.2       5 UNK         0.5055 
     38 O          26.4794   27.7370    5.1128 O.2       5 UNK        -0.5220 
     39 N          26.0796   28.1836    2.9214 N.am      6 UNK        -0.4450 
     40 CA         25.3203   29.4191    3.1039 C.3       6 UNK         0.0367 
     41 CB         24.3404   29.6036    1.9324 C.3       6 UNK        -0.1929 
     42 C          26.2606   30.6261    3.2445 C.2       6 UNK         0.5070 
     43 O          26.2058   31.3301    4.2539 O.2       6 UNK        -0.5237 
     44 N          27.1205   30.8423    2.2406 N.am      7 UNK        -0.4739 
     45 CA         28.1024   31.9257    2.1899 C.3       7 UNK         0.0276 
     46 CB         28.4174   32.2501    0.7174 C.3       7 UNK        -0.1927 
     47 C          29.3625   31.5566    2.9891 C.2       7 UNK         0.5013 
     48 O          30.4287   31.3602    2.4031 O.2       7 UNK        -0.5193 
     49 N          29.2163   31.4819    4.3201 N.am      8 UNK        -0.4253 
     50 CA         30.2358   31.0542    5.2902 C.3       8 UNK         0.0242 
     51 CB         29.6460   31.1324    6.7067 C.3       8 UNK        -0.2000 
     52 C          31.5794   31.8060    5.2248 C.2       8 UNK         0.4948 
     53 O          32.5954   31.2566    5.6511 O.2       8 UNK        -0.5275 
     54 N          31.5848   33.0160    4.6480 N.am      9 UNK        -0.4246 
     55 CA         32.7841   33.7849    4.3050 C.3       9 UNK         0.0261 
     56 CB         32.3613   35.1586    3.7598 C.3       9 UNK        -0.1959 
     57 C          33.7218   33.0746    3.3060 C.2       9 UNK         0.5033 
     58 O          34.9176   33.3702    3.3067 O.2       9 UNK        -0.5390 
     59 N          33.1886   32.1506    2.4896 N.am      10 UNK        -0.4215 
     60 CA         33.9733   31.2836    1.6066 C.3       10 UNK         0.0240 
     61 CB         33.0494   30.6401    0.5599 C.3       10 UNK        -0.1982 
     62 C          34.7492   30.2016    2.3796 C.2       10 UNK         0.4970 
     63 O          35.8473   29.8374    1.9569 O.2       10 UNK        -0.4916 
     64 N          34.1772   29.7163    3.4892 N.am      11 UNK        -0.4279 
     65 CA         34.8269   28.7841    4.4210 C.3       11 UNK         0.1003 
     66 C          35.8031   29.5188    5.3766 C.2       11 UNK         0.5709 
     67 N          35.4084   30.6490    5.9505 N.am      11 UNK        -0.7358 
     68 O          36.9230   29.0628    5.5946 O.2       11 UNK        -0.4999 
     69 C69        33.7951   27.9559    5.2278 C.3       12 UNK        -0.0954 
     70 S70        32.7500   26.9106    4.1620 S.3       12 UNK        -0.2268 
     71 C71        33.0946   25.2621    4.8444 C.3       12 UNK         0.0203 
     72 H72        29.2150   19.0672    0.7008 H         1 UNK         0.0888 
     73 H73        27.5944   18.9646    0.0093 H         1 UNK         0.0888 
     74 H74        28.9785   18.3299   -0.8849 H         1 UNK         0.0888 
     75 H75        30.0519   21.1347    0.5624 H         1 UNK         0.3017 
     76 H76        30.0935   22.6539   -1.8758 H         1 UNK         0.0873 
     77 H77        31.5695   24.1352   -0.7580 H         1 UNK         0.0745 
     78 H78        31.0278   23.7291    0.8229 H         1 UNK         0.0745 
     79 H79        31.8194   20.4907    1.5594 H         1 UNK         0.0705 
     80 H80        33.4327   20.9965    1.9624 H         1 UNK         0.0705 
     81 H81        33.7687   23.3660    2.9861 H         1 UNK         0.1334 
     82 H82        30.4448   24.8468    5.2604 H         1 UNK         0.1417 
     83 H83        29.9257   21.4814    2.6660 H         1 UNK         0.1562 
     84 H84        28.3091   23.7557    5.1744 H         1 UNK         0.0748 
     85 H85        28.2982   22.0819    4.6788 H         1 UNK         0.0748 
     86 H86        26.1596   24.7967    4.3602 H         1 UNK         0.0940 
     87 H87        25.8400   25.1593    2.6883 H         1 UNK         0.0940 
     88 H88        28.2402   26.1254    4.3212 H         1 UNK         0.0703 
     89 H89        28.1599   25.9772    1.4962 H         1 UNK         0.3081 
     90 H90        29.9340   28.9809    0.8039 H         1 UNK         0.0719 
     91 H91        31.1041   26.1500    0.7441 H         1 UNK         0.0809 
     92 H92        31.5850   27.4639   -0.3334 H         1 UNK         0.0809 
     93 H93        31.8732   27.5857    1.3937 H         1 UNK         0.0809 
     94 H94        29.0921   26.6291   -0.6968 H         1 UNK         0.2990 
     95 H95        25.9642   28.0205   -1.7154 H         1 UNK         0.0690 
     96 H96        26.9677   27.6903   -3.9549 H         1 UNK         0.0788 
     97 H97        28.5843   27.6027   -3.2544 H         1 UNK         0.0788 
     98 H98        27.6699   29.1027   -3.1842 H         1 UNK         0.0788 
     99 H99        27.3523   25.6047   -2.4125 H         1 UNK         0.2993 
    100 H100       25.9801   23.5977    0.1966 H         1 UNK         0.0949 
    101 H101       24.1924   23.7709   -1.5566 H         1 UNK         0.0767 
    102 H102       25.4149   23.6215   -2.8130 H         1 UNK         0.0767 
    103 H103       25.1183   22.2863   -1.6999 H         1 UNK         0.0767 
    104 H104       27.5344   22.4712   -1.6365 H         1 UNK         0.3013 
    105 H105       26.2663   27.9006    1.9685 H         1 UNK         0.3121 
    106 H106       24.7318   29.3438    4.0211 H         1 UNK         0.0774 
    107 H107       23.7676   30.5249    2.0460 H         1 UNK         0.0815 
    108 H108       24.8525   29.6544    0.9710 H         1 UNK         0.0815 
    109 H109       23.6256   28.7819    1.8839 H         1 UNK         0.0815 
    110 H110       27.1352   30.1962    1.4520 H         1 UNK         0.2987 
    111 H111       27.6724   32.8226    2.6415 H         1 UNK         0.0949 
    112 H112       28.8729   31.4025    0.2040 H         1 UNK         0.0806 
    113 H113       27.5165   32.5270    0.1700 H         1 UNK         0.0806 
    114 H114       29.1137   33.0864    0.6430 H         1 UNK         0.0806 
    115 H115       28.2786   31.6183    4.6813 H         1 UNK         0.3010 
    116 H116       30.4566   30.0073    5.0716 H         1 UNK         0.0829 
    117 H117       28.7622   30.5011    6.8031 H         1 UNK         0.0813 
    118 H118       30.3677   30.7909    7.4505 H         1 UNK         0.0813 
    119 H119       29.3628   32.1522    6.9697 H         1 UNK         0.0813 
    120 H120       30.7021   33.3868    4.3288 H         1 UNK         0.3038 
    121 H121       33.3497   33.9387    5.2264 H         1 UNK         0.0769 
    122 H122       31.7698   35.0664    2.8479 H         1 UNK         0.0811 
    123 H123       33.2338   35.7689    3.5216 H         1 UNK         0.0811 
    124 H124       31.7715   35.7126    4.4903 H         1 UNK         0.0811 
    125 H125       32.1869   31.9647    2.5306 H         1 UNK         0.3204 
    126 H126       34.7023   31.9028    1.0794 H         1 UNK         0.0748 
    127 H127       33.6170   30.0210   -0.1361 H         1 UNK         0.0771 
    128 H128       32.2984   30.0020    1.0261 H         1 UNK         0.0771 
    129 H129       32.5264   31.3954   -0.0269 H         1 UNK         0.0771 
    130 H130       33.2962   30.1011    3.7984 H         1 UNK         0.2980 
    131 H131       35.4226   28.0785    3.8380 H         1 UNK         0.0545 
    132 H132       36.0337   31.1389    6.5693 H         1 UNK         0.3459 
    133 H133       34.4561   30.9795    5.8174 H         1 UNK         0.3459 
    134 H134       33.1401   28.6098    5.8056 H         1 UNK         0.0616 
    135 H135       34.3065   27.3230    5.9554 H         1 UNK         0.0616 
    136 H136       34.1489   25.0245    4.6947 H         1 UNK         0.0634 
    137 H137       32.9259   25.2733    5.9223 H         1 UNK         0.0634 
@<TRIPOS>BOND
     1    1    2 1    
     2    1   72 1    
     3    1   73 1    
     4    1   74 1    
     5    2    3 2    
     6    2    4 am   BACKBONE|DICT|INTERRES
     7    4    5 1    
     8    4   75 1    
     9    5    6 1    
    10    5   35 1    
    11    5   76 1    
    12    6    7 1    
    13    6   77 1    
    14    6   78 1    
    15    7    8 1    
    16    8    9 1    
    17    8   79 1    
    18    8   80 1    
    19    9   10 ar   
    20    9   14 ar   
    21   10   11 ar   
    22   10   81 1    
    23   11   12 ar   
    24   11   71 1    
    25   12   13 ar   
    26   12   82 1    
    27   13   14 ar   
    28   13   15 1    
    29   14   83 1    
    30   15   16 1    
    31   15   84 1    
    32   15   85 1    
    33   16   17 1    
    34   17   18 1    
    35   17   86 1    
    36   17   87 1    
    37   18   19 1    
    38   18   37 1    
    39   18   88 1    
    40   19   20 am   BACKBONE|DICT|INTERRES
    41   19   89 1    
    42   20   21 2    
    43   20   22 1    
    44   22   23 1    
    45   22   24 1    
    46   22   90 1    
    47   23   91 1    
    48   23   92 1    
    49   23   93 1    
    50   24   25 am   BACKBONE|DICT|INTERRES
    51   24   94 1    
    52   25   26 2    
    53   25   27 1    
    54   27   28 1    
    55   27   29 1    
    56   27   95 1    
    57   28   96 1    
    58   28   97 1    
    59   28   98 1    
    60   29   30 am   BACKBONE|DICT|INTERRES
    61   29   99 1    
    62   30   31 2    
    63   30   32 1    
    64   32   33 1    
    65   32   34 1    
    66   32  100 1    
    67   33  101 1    
    68   33  102 1    
    69   33  103 1    
    70   34   35 am   BACKBONE|DICT|INTERRES
    71   34  104 1    
    72   35   36 2    
    73   37   38 2    
    74   37   39 am   BACKBONE|DICT|INTERRES
    75   39   40 1    
    76   39  105 1    
    77   40   41 1    
    78   40   42 1    
    79   40  106 1    
    80   41  107 1    
    81   41  108 1    
    82   41  109 1    
    83   42   43 2    
    84   42   44 am   BACKBONE|DICT|INTERRES
    85   44   45 1    
    86   44  110 1    
    87   45   46 1    
    88   45   47 1    
    89   45  111 1    
    90   46  112 1    
    91   46  113 1    
    92   46  114 1    
    93   47   48 2    
    94   47   49 am   BACKBONE|DICT|INTERRES
    95   49   50 1    
    96   49  115 1    
    97   50   51 1    
    98   50   52 1    
    99   50  116 1    
   100   51  117 1    
   101   51  118 1    
   102   51  119 1    
   103   52   53 2    
   104   52   54 am   BACKBONE|DICT|INTERRES
   105   54   55 1    
   106   54  120 1    
   107   55   56 1    
   108   55   57 1    
   109   55  121 1    
   110   56  122 1    
   111   56  123 1    
   112   56  124 1    
   113   57   58 2    
   114   57   59 am   BACKBONE|DICT|INTERRES
   115   59   60 1    
   116   59  125 1    
   117   60   61 1    
   118   60   62 1    
   119   60  126 1    
   120   61  127 1    
   121   61  128 1    
   122   61  129 1    
   123   62   63 2    
   124   62   64 am   BACKBONE|DICT|INTERRES
   125   64   65 1    
   126   64  130 1    
   127   65   66 1    
   128   65   69 1    
   129   65  131 1    
   130   66   67 am   BACKBONE|DICT|INTERRES
   131   66   68 2    
   132   67  132 1    
   133   67  133 1    
   134   69   70 1    
   135   69  134 1    
   136   69  135 1    
   137   70   71 1    
   138   71  136 1    
   139   71  137 1    
@<TRIPOS>SUBSTRUCTURE
     1 UNK         1 GROUP             0       ****    0 ROOT    
