@<TRIPOS>MOLECULE
3R136
137   139    1
SMALL
USER_CHARGES


@<TRIPOS>ATOM
      1 CA         30.2875   19.9584    4.4263 C.3       0 UNK        -0.1979 
      2 C          29.9209   20.9931    3.3724 C.2       0 UNK         0.4864 
      3 O          30.4004   20.9093    2.2405 O.2       0 UNK        -0.5359 
      4 N          29.0823   21.9711    3.7380 N.am      1 UNK        -0.4318 
      5 CA         28.5873   23.0284    2.8515 C.3       1 UNK         0.0824 
      6 C6         27.8803   24.1555    3.6449 C.3       12 UNK        -0.0944 
      7 S7         29.0082   25.0425    4.7727 S.3       12 UNK        -0.2672 
      8 C8         29.0715   26.7028    4.0247 C.3       12 UNK         0.0333 
      9 C9         30.1384   26.8039    2.9424 C.ar      12 UNK        -0.0807 
     10 C10        31.3749   27.3869    3.2367 C.ar      12 UNK        -0.0894 
     11 C11        32.3638   27.4938    2.2544 C.ar      12 UNK        -0.0804 
     12 C12        32.1039   27.0223    0.9654 C.ar      12 UNK        -0.0824 
     13 C13        30.8692   26.4464    0.6541 C.ar      12 UNK        -0.0762 
     14 C14        29.8875   26.3447    1.6454 C.ar      12 UNK        -0.0782 
     15 C15        30.6154   25.9239   -0.7521 C.3       12 UNK         0.0230 
     16 S16        30.0250   27.2393   -1.8596 S.3       12 UNK        -0.2608 
     17 C17        28.2730   27.3431   -1.3712 C.3       12 UNK        -0.0989 
     18 CA         27.4794   28.3702   -2.2249 C.3       5 UNK         0.0716 
     19 N          26.0699   28.0058   -2.3231 N.am      5 UNK        -0.4135 
     20 C          25.5683   27.0554   -3.1162 C.2       4 UNK         0.5031 
     21 O          26.2401   26.4087   -3.9221 O.2       4 UNK        -0.5229 
     22 CA         24.0825   26.7179   -2.9095 C.3       4 UNK         0.0329 
     23 CB         23.4590   26.0245   -4.1346 C.3       4 UNK        -0.2001 
     24 N          23.9640   25.8335   -1.7518 N.am      4 UNK        -0.4303 
     25 C          23.9679   26.2278   -0.4735 C.2       3 UNK         0.5044 
     26 O          23.9251   27.4079   -0.1244 O.2       3 UNK        -0.5152 
     27 CA         24.0961   25.1299    0.5966 C.3       3 UNK         0.0319 
     28 CB         22.7874   24.3311    0.7577 C.3       3 UNK        -0.2001 
     29 N          25.2632   24.2554    0.3979 N.am      3 UNK        -0.4354 
     30 C          25.4878   23.3464   -0.5651 C.2       2 UNK         0.4964 
     31 O          24.6779   23.0846   -1.4555 O.2       2 UNK        -0.5047 
     32 CA         26.8567   22.6343   -0.5745 C.3       2 UNK         0.0288 
     33 CB         27.6125   22.9395   -1.8804 C.3       2 UNK        -0.2113 
     34 N          27.7206   22.9851    0.5594 N.am      2 UNK        -0.4145 
     35 C          27.6270   22.4566    1.7875 C.2       1 UNK         0.5006 
     36 O          26.7953   21.6028    2.1051 O.2       1 UNK        -0.5103 
     37 C          27.5863   29.7995   -1.6631 C.2       5 UNK         0.5055 
     38 O          26.5689   30.4017   -1.3074 O.2       5 UNK        -0.5220 
     39 N          28.8237   30.3056   -1.5741 N.am      6 UNK        -0.4450 
     40 CA         29.1643   31.6069   -0.9896 C.3       6 UNK         0.0367 
     41 CB         30.6330   31.9347   -1.3052 C.3       6 UNK        -0.1929 
     42 C          28.9171   31.6810    0.5288 C.2       6 UNK         0.5070 
     43 O          28.6299   32.7662    1.0343 O.2       6 UNK        -0.5237 
     44 N          29.0305   30.5316    1.2147 N.am      7 UNK        -0.4739 
     45 CA         28.7969   30.3271    2.6510 C.3       7 UNK         0.0276 
     46 CB         27.2996   30.4906    2.9874 C.3       7 UNK        -0.1927 
     47 C          29.7187   31.1740    3.5514 C.2       7 UNK         0.5013 
     48 O          29.2657   31.7322    4.5532 O.2       7 UNK        -0.5193 
     49 N          30.9979   31.2647    3.1640 N.am      8 UNK        -0.4253 
     50 CA         32.0355   32.0030    3.8842 C.3       8 UNK         0.0242 
     51 CB         33.2603   32.1648    2.9677 C.3       8 UNK        -0.2000 
     52 C          32.4344   31.3085    5.1970 C.2       8 UNK         0.4948 
     53 O          32.4108   30.0787    5.2783 O.2       8 UNK        -0.5275 
     54 N          32.8574   32.1089    6.1842 N.am      9 UNK        -0.4246 
     55 CA         33.3379   31.6353    7.4882 C.3       9 UNK         0.0261 
     56 CB         33.4138   32.8237    8.4608 C.3       9 UNK        -0.1959 
     57 C          34.6938   30.9062    7.4257 C.2       9 UNK         0.5033 
     58 O          35.0076   30.1437    8.3408 O.2       9 UNK        -0.5390 
     59 N          35.4656   31.1383    6.3530 N.am      10 UNK        -0.4215 
     60 CA         36.7944   30.5694    6.1007 C.3       10 UNK         0.0240 
     61 CB         37.3436   31.1475    4.7858 C.3       10 UNK        -0.1982 
     62 C          36.8451   29.0303    6.0673 C.2       10 UNK         0.4970 
     63 O          37.8935   28.4630    6.3776 O.2       10 UNK        -0.4916 
     64 N          35.7265   28.3879    5.7082 N.am      11 UNK        -0.4279 
     65 CA         35.5622   26.9264    5.7430 C.3       11 UNK         0.1003 
     66 C          35.2725   26.3553    7.1636 C.2       11 UNK         0.5709 
     67 N          35.0764   27.1692    8.1956 N.am      11 UNK        -0.7358 
     68 O          35.2396   25.1394    7.3376 O.2       11 UNK        -0.4999 
     69 C69        34.5090   26.4419    4.7132 C.3       12 UNK        -0.0954 
     70 S70        34.9605   26.8673    2.9956 S.3       12 UNK        -0.2268 
     71 C71        33.7124   28.1217    2.5748 C.3       12 UNK         0.0203 
     72 H72        29.8036   20.1605    5.3818 H         1 UNK         0.0888 
     73 H73        29.9857   18.9645    4.0969 H         1 UNK         0.0888 
     74 H74        31.3653   19.9522    4.5871 H         1 UNK         0.0888 
     75 H75        28.7157   21.9868    4.6787 H         1 UNK         0.3017 
     76 H76        29.4529   23.4547    2.3393 H         1 UNK         0.0873 
     77 H77        27.4144   24.8746    2.9699 H         1 UNK         0.0745 
     78 H78        27.0635   23.7448    4.2421 H         1 UNK         0.0745 
     79 H79        29.2798   27.4236    4.8172 H         1 UNK         0.0705 
     80 H80        28.0951   26.9803    3.6249 H         1 UNK         0.0705 
     81 H81        31.5663   27.7609    4.2330 H         1 UNK         0.1334 
     82 H82        32.8669   27.1013    0.2027 H         1 UNK         0.1417 
     83 H83        28.9283   25.9097    1.4086 H         1 UNK         0.1562 
     84 H84        29.9027   25.0989   -0.7395 H         1 UNK         0.0748 
     85 H85        31.5401   25.5137   -1.1614 H         1 UNK         0.0748 
     86 H86        28.1887   27.5627   -0.3056 H         1 UNK         0.0940 
     87 H87        27.8543   26.3443   -1.4984 H         1 UNK         0.0940 
     88 H88        27.8809   28.3967   -3.2406 H         1 UNK         0.0703 
     89 H89        25.4593   28.5182   -1.6961 H         1 UNK         0.3081 
     90 H90        23.5348   27.6452   -2.7271 H         1 UNK         0.0719 
     91 H91        23.9386   25.0685   -4.3493 H         1 UNK         0.0809 
     92 H92        22.3958   25.8371   -3.9832 H         1 UNK         0.0809 
     93 H93        23.5556   26.6466   -5.0253 H         1 UNK         0.0809 
     94 H94        24.0651   24.8364   -1.9238 H         1 UNK         0.2990 
     95 H95        24.2756   25.6409    1.5442 H         1 UNK         0.0690 
     96 H96        22.8712   23.5925    1.5550 H         1 UNK         0.0788 
     97 H97        22.5060   23.8067   -0.1557 H         1 UNK         0.0788 
     98 H98        21.9599   24.9934    1.0154 H         1 UNK         0.0788 
     99 H99        26.0095   24.3984    1.0605 H         1 UNK         0.2993 
    100 H100       26.6560   21.5609   -0.5419 H         1 UNK         0.0949 
    101 H101       27.8131   24.0046   -1.9967 H         1 UNK         0.0767 
    102 H102       28.5649   22.4105   -1.9219 H         1 UNK         0.0767 
    103 H103       27.0343   22.6243   -2.7504 H         1 UNK         0.0767 
    104 H104       28.4492   23.6564    0.3718 H         1 UNK         0.3013 
    105 H105       29.5950   29.7274   -1.8822 H         1 UNK         0.3121 
    106 H106       28.5335   32.3631   -1.4620 H         1 UNK         0.0774 
    107 H107       30.9112   32.9081   -0.8985 H         1 UNK         0.0815 
    108 H108       31.3140   31.1972   -0.8783 H         1 UNK         0.0815 
    109 H109       30.8094   31.9732   -2.3803 H         1 UNK         0.0815 
    110 H110       29.2988   29.7087    0.6941 H         1 UNK         0.2987 
    111 H111       29.0601   29.2921    2.8555 H         1 UNK         0.0949 
    112 H112       26.9654   31.5199    2.8534 H         1 UNK         0.0806 
    113 H113       26.6798   29.8525    2.3573 H         1 UNK         0.0806 
    114 H114       27.0986   30.2154    4.0235 H         1 UNK         0.0806 
    115 H115       31.2866   30.7531    2.3439 H         1 UNK         0.3010 
    116 H116       31.6415   32.9946    4.1183 H         1 UNK         0.0829 
    117 H117       32.9970   32.6781    2.0425 H         1 UNK         0.0813 
    118 H118       34.0387   32.7566    3.4508 H         1 UNK         0.0813 
    119 H119       33.7001   31.2031    2.7023 H         1 UNK         0.0813 
    120 H120       32.8497   33.1093    6.0409 H         1 UNK         0.3038 
    121 H121       32.6073   30.9226    7.8773 H         1 UNK         0.0769 
    122 H122       34.1198   33.5821    8.1198 H         1 UNK         0.0811 
    123 H123       33.7392   32.4980    9.4500 H         1 UNK         0.0811 
    124 H124       32.4408   33.2996    8.5838 H         1 UNK         0.0811 
    125 H125       35.1177   31.7869    5.6632 H         1 UNK         0.3204 
    126 H126       37.4441   30.8936    6.9162 H         1 UNK         0.0748 
    127 H127       38.3448   30.7663    4.5790 H         1 UNK         0.0771 
    128 H128       36.7132   30.8847    3.9350 H         1 UNK         0.0771 
    129 H129       37.4171   32.2345    4.8281 H         1 UNK         0.0771 
    130 H130       34.9004   28.9255    5.4906 H         1 UNK         0.2980 
    131 H131       36.5145   26.4811    5.4488 H         1 UNK         0.0545 
    132 H132       34.8981   26.7699    9.1030 H         1 UNK         0.3459 
    133 H133       35.1096   28.1780    8.0918 H         1 UNK         0.3459 
    134 H134       33.5294   26.8490    4.9613 H         1 UNK         0.0616 
    135 H135       34.4029   25.3564    4.7533 H         1 UNK         0.0616 
    136 H136       33.6257   28.8349    3.3926 H         1 UNK         0.0634 
    137 H137       34.0650   28.6901    1.7131 H         1 UNK         0.0634 
@<TRIPOS>BOND
     1    1    2 1    
     2    1   72 1    
     3    1   73 1    
     4    1   74 1    
     5    2    3 2    
     6    2    4 am   BACKBONE|DICT|INTERRES
     7    4    5 1    
     8    4   75 1    
     9    5    6 1    
    10    5   35 1    
    11    5   76 1    
    12    6    7 1    
    13    6   77 1    
    14    6   78 1    
    15    7    8 1    
    16    8    9 1    
    17    8   79 1    
    18    8   80 1    
    19    9   10 ar   
    20    9   14 ar   
    21   10   11 ar   
    22   10   81 1    
    23   11   12 ar   
    24   11   71 1    
    25   12   13 ar   
    26   12   82 1    
    27   13   14 ar   
    28   13   15 1    
    29   14   83 1    
    30   15   16 1    
    31   15   84 1    
    32   15   85 1    
    33   16   17 1    
    34   17   18 1    
    35   17   86 1    
    36   17   87 1    
    37   18   19 1    
    38   18   37 1    
    39   18   88 1    
    40   19   20 am   BACKBONE|DICT|INTERRES
    41   19   89 1    
    42   20   21 2    
    43   20   22 1    
    44   22   23 1    
    45   22   24 1    
    46   22   90 1    
    47   23   91 1    
    48   23   92 1    
    49   23   93 1    
    50   24   25 am   BACKBONE|DICT|INTERRES
    51   24   94 1    
    52   25   26 2    
    53   25   27 1    
    54   27   28 1    
    55   27   29 1    
    56   27   95 1    
    57   28   96 1    
    58   28   97 1    
    59   28   98 1    
    60   29   30 am   BACKBONE|DICT|INTERRES
    61   29   99 1    
    62   30   31 2    
    63   30   32 1    
    64   32   33 1    
    65   32   34 1    
    66   32  100 1    
    67   33  101 1    
    68   33  102 1    
    69   33  103 1    
    70   34   35 am   BACKBONE|DICT|INTERRES
    71   34  104 1    
    72   35   36 2    
    73   37   38 2    
    74   37   39 am   BACKBONE|DICT|INTERRES
    75   39   40 1    
    76   39  105 1    
    77   40   41 1    
    78   40   42 1    
    79   40  106 1    
    80   41  107 1    
    81   41  108 1    
    82   41  109 1    
    83   42   43 2    
    84   42   44 am   BACKBONE|DICT|INTERRES
    85   44   45 1    
    86   44  110 1    
    87   45   46 1    
    88   45   47 1    
    89   45  111 1    
    90   46  112 1    
    91   46  113 1    
    92   46  114 1    
    93   47   48 2    
    94   47   49 am   BACKBONE|DICT|INTERRES
    95   49   50 1    
    96   49  115 1    
    97   50   51 1    
    98   50   52 1    
    99   50  116 1    
   100   51  117 1    
   101   51  118 1    
   102   51  119 1    
   103   52   53 2    
   104   52   54 am   BACKBONE|DICT|INTERRES
   105   54   55 1    
   106   54  120 1    
   107   55   56 1    
   108   55   57 1    
   109   55  121 1    
   110   56  122 1    
   111   56  123 1    
   112   56  124 1    
   113   57   58 2    
   114   57   59 am   BACKBONE|DICT|INTERRES
   115   59   60 1    
   116   59  125 1    
   117   60   61 1    
   118   60   62 1    
   119   60  126 1    
   120   61  127 1    
   121   61  128 1    
   122   61  129 1    
   123   62   63 2    
   124   62   64 am   BACKBONE|DICT|INTERRES
   125   64   65 1    
   126   64  130 1    
   127   65   66 1    
   128   65   69 1    
   129   65  131 1    
   130   66   67 am   BACKBONE|DICT|INTERRES
   131   66   68 2    
   132   67  132 1    
   133   67  133 1    
   134   69   70 1    
   135   69  134 1    
   136   69  135 1    
   137   70   71 1    
   138   71  136 1    
   139   71  137 1    
@<TRIPOS>SUBSTRUCTURE
     1 UNK         1 GROUP             0       ****    0 ROOT    
