@<TRIPOS>MOLECULE
3R136
137   139    1
SMALL
USER_CHARGES


@<TRIPOS>ATOM
      1 CA         34.1796   21.2266    0.9828 C.3       0 UNK        -0.1979 
      2 C          33.1362   22.3060    1.2326 C.2       0 UNK         0.4864 
      3 O          33.3542   23.1802    2.0711 O.2       0 UNK        -0.5359 
      4 N          32.0154   22.2503    0.5061 N.am      1 UNK        -0.4318 
      5 CA         30.9086   23.2036    0.5634 C.3       1 UNK         0.0824 
      6 C6         29.8131   22.7776    1.5858 C.3       12 UNK        -0.0944 
      7 S7         29.9499   23.6779    3.1641 S.3       12 UNK        -0.2672 
      8 C8         28.7786   25.0397    2.8604 C.3       12 UNK         0.0333 
      9 C9         28.7197   26.0341    4.0122 C.ar      12 UNK        -0.0807 
     10 C10        29.8699   26.7164    4.4251 C.ar      12 UNK        -0.0894 
     11 C11        29.8012   27.6656    5.4494 C.ar      12 UNK        -0.0804 
     12 C12        28.5663   27.9631    6.0311 C.ar      12 UNK        -0.0824 
     13 C13        27.4069   27.3005    5.6184 C.ar      12 UNK        -0.0762 
     14 C14        27.4970   26.3135    4.6313 C.ar      12 UNK        -0.0782 
     15 C15        26.0630   27.6662    6.2408 C.3       12 UNK         0.0230 
     16 S16        24.7721   28.0705    5.0124 S.3       12 UNK        -0.2608 
     17 C17        25.5907   29.3010    3.9349 C.3       12 UNK        -0.0989 
     18 CA         25.9470   28.7232    2.5352 C.3       5 UNK         0.0716 
     19 N          24.7688   28.2820    1.7877 N.am      5 UNK        -0.4135 
     20 C          24.4183   27.0093    1.5719 C.2       4 UNK         0.5031 
     21 O          24.9957   26.0381    2.0641 O.2       4 UNK        -0.5229 
     22 CA         23.2472   26.7621    0.5982 C.3       4 UNK         0.0329 
     23 CB         22.5007   28.0424    0.1544 C.3       4 UNK        -0.2001 
     24 N          23.6893   26.0017   -0.5773 N.am      4 UNK        -0.4303 
     25 C          24.7091   26.3124   -1.3916 C.2       3 UNK         0.5044 
     26 O          25.3935   27.3354   -1.2902 O.2       3 UNK        -0.5152 
     27 CA         24.9994   25.3143   -2.5266 C.3       3 UNK         0.0319 
     28 CB         24.3195   25.7723   -3.8267 C.3       3 UNK        -0.2001 
     29 N          26.4367   25.1616   -2.7649 N.am      3 UNK        -0.4354 
     30 C          27.3068   24.6663   -1.8749 C.2       2 UNK         0.4964 
     31 O          26.9713   24.1946   -0.7850 O.2       2 UNK        -0.5047 
     32 CA         28.7949   24.7037   -2.2684 C.3       2 UNK         0.0288 
     33 CB         29.2056   26.0691   -2.8563 C.3       2 UNK        -0.2113 
     34 N          29.6056   24.4389   -1.0799 N.am      2 UNK        -0.4145 
     35 C          30.3272   23.3361   -0.8550 C.2       1 UNK         0.5006 
     36 O          30.5146   22.4433   -1.6880 O.2       1 UNK        -0.5103 
     37 C          26.7649   29.6980    1.6637 C.2       5 UNK         0.5055 
     38 O          27.3246   30.6619    2.1887 O.2       5 UNK        -0.5220 
     39 N          26.8188   29.4506    0.3420 N.am      6 UNK        -0.4450 
     40 CA         27.5598   30.2785   -0.6177 C.3       6 UNK         0.0367 
     41 CB         27.1740   29.8885   -2.0532 C.3       6 UNK        -0.1929 
     42 C          29.0852   30.2057   -0.4338 C.2       6 UNK         0.5070 
     43 O          29.7685   31.2078   -0.6445 O.2       6 UNK        -0.5237 
     44 N          29.5963   29.0437   -0.0034 N.am      7 UNK        -0.4739 
     45 CA         31.0134   28.8057    0.2936 C.3       7 UNK         0.0276 
     46 CB         31.3385   27.3145    0.0895 C.3       7 UNK        -0.1927 
     47 C          31.4011   29.2954    1.7020 C.2       7 UNK         0.5013 
     48 O          32.0714   28.5717    2.4383 O.2       7 UNK        -0.5193 
     49 N          30.9923   30.5216    2.0565 N.am      8 UNK        -0.4253 
     50 CA         31.2130   31.1494    3.3653 C.3       8 UNK         0.0242 
     51 CB         30.5682   32.5438    3.3760 C.3       8 UNK        -0.2000 
     52 C          32.6936   31.2313    3.7825 C.2       8 UNK         0.4948 
     53 O          32.9996   31.1117    4.9686 O.2       8 UNK        -0.5275 
     54 N          33.5836   31.3815    2.7920 N.am      9 UNK        -0.4246 
     55 CA         35.0385   31.3956    2.9495 C.3       9 UNK         0.0261 
     56 CB         35.6720   31.9093    1.6454 C.3       9 UNK        -0.1959 
     57 C          35.6550   30.0397    3.3497 C.2       9 UNK         0.5033 
     58 O          36.8150   30.0266    3.7645 O.2       9 UNK        -0.5390 
     59 N          34.9100   28.9289    3.2196 N.am      10 UNK        -0.4215 
     60 CA         35.3665   27.5933    3.6217 C.3       10 UNK         0.0240 
     61 CB         34.4821   26.5214    2.9630 C.3       10 UNK        -0.1982 
     62 C          35.3900   27.4014    5.1488 C.2       10 UNK         0.4970 
     63 O          36.1526   26.5651    5.6351 O.2       10 UNK        -0.4916 
     64 N          34.5597   28.1626    5.8715 N.am      11 UNK        -0.4279 
     65 CA         34.4890   28.1645    7.3365 C.3       11 UNK         0.1003 
     66 C          35.6464   28.9859    7.9640 C.2       11 UNK         0.5709 
     67 N          36.1334   28.5773    9.1305 N.am      11 UNK        -0.7358 
     68 O          36.0796   30.0070    7.4288 O.2       11 UNK        -0.4999 
     69 C69        33.1119   28.6760    7.8274 C.3       12 UNK        -0.0954 
     70 S70        31.7585   27.5378    7.3815 S.3       12 UNK        -0.2268 
     71 C71        31.0551   28.3758    5.9313 C.3       12 UNK         0.0203 
     72 H72        34.3681   20.6686    1.8996 H         1 UNK         0.0888 
     73 H73        33.8610   20.5207    0.2158 H         1 UNK         0.0888 
     74 H74        35.1170   21.6787    0.6597 H         1 UNK         0.0888 
     75 H75        31.9111   21.5543   -0.2222 H         1 UNK         0.3017 
     76 H76        31.3085   24.1864    0.8242 H         1 UNK         0.0873 
     77 H77        28.8013   22.9292    1.2024 H         1 UNK         0.0745 
     78 H78        29.8732   21.7082    1.7958 H         1 UNK         0.0745 
     79 H79        29.0672   25.5726    1.9553 H         1 UNK         0.0705 
     80 H80        27.7903   24.6186    2.6659 H         1 UNK         0.0705 
     81 H81        30.8196   26.5052    3.9515 H         1 UNK         0.1334 
     82 H82        28.5123   28.7118    6.8099 H         1 UNK         0.1417 
     83 H83        26.5994   25.8021    4.3087 H         1 UNK         0.1562 
     84 H84        26.1694   28.5165    6.9164 H         1 UNK         0.0748 
     85 H85        25.7181   26.8310    6.8516 H         1 UNK         0.0748 
     86 H86        26.4837   29.6729    4.4407 H         1 UNK         0.0940 
     87 H87        24.9269   30.1610    3.8313 H         1 UNK         0.0940 
     88 H88        26.6171   27.8766    2.6796 H         1 UNK         0.0703 
     89 H89        24.2436   29.0091    1.3235 H         1 UNK         0.3081 
     90 H90        22.5355   26.1311    1.1326 H         1 UNK         0.0719 
     91 H91        23.1364   28.7170   -0.4206 H         1 UNK         0.0809 
     92 H92        21.6446   27.7926   -0.4725 H         1 UNK         0.0809 
     93 H93        22.1117   28.5929    1.0121 H         1 UNK         0.0809 
     94 H94        23.2102   25.1253   -0.7305 H         1 UNK         0.2990 
     95 H95        24.6007   24.3362   -2.2490 H         1 UNK         0.0690 
     96 H96        24.4801   25.0572   -4.6337 H         1 UNK         0.0788 
     97 H97        24.6937   26.7427   -4.1563 H         1 UNK         0.0788 
     98 H98        23.2413   25.8690   -3.6909 H         1 UNK         0.0788 
     99 H99        26.7932   25.5535   -3.6237 H         1 UNK         0.2993 
    100 H100       28.9548   23.9306   -3.0231 H         1 UNK         0.0949 
    101 H101       30.2767   26.1036   -3.0564 H         1 UNK         0.0767 
    102 H102       28.7053   26.2665   -3.8047 H         1 UNK         0.0767 
    103 H103       28.9646   26.8901   -2.1802 H         1 UNK         0.0767 
    104 H104       29.4388   25.0626   -0.3054 H         1 UNK         0.3013 
    105 H105       26.3212   28.6512   -0.0428 H         1 UNK         0.3121 
    106 H106       27.2618   31.3175   -0.4603 H         1 UNK         0.0774 
    107 H107       27.4427   28.8562   -2.2789 H         1 UNK         0.0815 
    108 H108       27.6815   30.5238   -2.7804 H         1 UNK         0.0815 
    109 H109       26.1022   29.9977   -2.2198 H         1 UNK         0.0815 
    110 H110       28.9550   28.2904    0.1939 H         1 UNK         0.2987 
    111 H111       31.6233   29.3723   -0.4138 H         1 UNK         0.0949 
    112 H112       30.7855   26.6845    0.7847 H         1 UNK         0.0806 
    113 H113       31.1134   26.9940   -0.9258 H         1 UNK         0.0806 
    114 H114       32.3995   27.1196    0.2526 H         1 UNK         0.0806 
    115 H115       30.4560   31.0478    1.3763 H         1 UNK         0.3010 
    116 H116       30.6960   30.5347    4.1026 H         1 UNK         0.0829 
    117 H117       29.4968   32.4848    3.1812 H         1 UNK         0.0813 
    118 H118       30.6935   33.0245    4.3474 H         1 UNK         0.0813 
    119 H119       31.0110   33.2003    2.6260 H         1 UNK         0.0813 
    120 H120       33.2301   31.4643    1.8499 H         1 UNK         0.3038 
    121 H121       35.2789   32.1020    3.7472 H         1 UNK         0.0769 
    122 H122       35.4561   31.2494    0.8042 H         1 UNK         0.0811 
    123 H123       36.7573   31.9747    1.7369 H         1 UNK         0.0811 
    124 H124       35.3114   32.9068    1.3935 H         1 UNK         0.0811 
    125 H125       33.9535   28.9959    2.8812 H         1 UNK         0.3204 
    126 H126       36.3866   27.4573    3.2561 H         1 UNK         0.0748 
    127 H127       34.8725   25.5213    3.1568 H         1 UNK         0.0771 
    128 H128       33.4612   26.5452    3.3461 H         1 UNK         0.0771 
    129 H129       34.4379   26.6468    1.8812 H         1 UNK         0.0771 
    130 H130       34.0148   28.8721    5.4029 H         1 UNK         0.2980 
    131 H131       34.5998   27.1326    7.6772 H         1 UNK         0.0545 
    132 H132       36.8756   29.1056    9.5624 H         1 UNK         0.3459 
    133 H133       35.7770   27.7498    9.5867 H         1 UNK         0.3459 
    134 H134       33.1046   28.7644    8.9155 H         1 UNK         0.0616 
    135 H135       32.9058   29.6763    7.4415 H         1 UNK         0.0616 
    136 H136       30.8205   29.4089    6.1916 H         1 UNK         0.0634 
    137 H137       31.8000   28.4116    5.1359 H         1 UNK         0.0634 
@<TRIPOS>BOND
     1    1    2 1    
     2    1   72 1    
     3    1   73 1    
     4    1   74 1    
     5    2    3 2    
     6    2    4 am   BACKBONE|DICT|INTERRES
     7    4    5 1    
     8    4   75 1    
     9    5    6 1    
    10    5   35 1    
    11    5   76 1    
    12    6    7 1    
    13    6   77 1    
    14    6   78 1    
    15    7    8 1    
    16    8    9 1    
    17    8   79 1    
    18    8   80 1    
    19    9   10 ar   
    20    9   14 ar   
    21   10   11 ar   
    22   10   81 1    
    23   11   12 ar   
    24   11   71 1    
    25   12   13 ar   
    26   12   82 1    
    27   13   14 ar   
    28   13   15 1    
    29   14   83 1    
    30   15   16 1    
    31   15   84 1    
    32   15   85 1    
    33   16   17 1    
    34   17   18 1    
    35   17   86 1    
    36   17   87 1    
    37   18   19 1    
    38   18   37 1    
    39   18   88 1    
    40   19   20 am   BACKBONE|DICT|INTERRES
    41   19   89 1    
    42   20   21 2    
    43   20   22 1    
    44   22   23 1    
    45   22   24 1    
    46   22   90 1    
    47   23   91 1    
    48   23   92 1    
    49   23   93 1    
    50   24   25 am   BACKBONE|DICT|INTERRES
    51   24   94 1    
    52   25   26 2    
    53   25   27 1    
    54   27   28 1    
    55   27   29 1    
    56   27   95 1    
    57   28   96 1    
    58   28   97 1    
    59   28   98 1    
    60   29   30 am   BACKBONE|DICT|INTERRES
    61   29   99 1    
    62   30   31 2    
    63   30   32 1    
    64   32   33 1    
    65   32   34 1    
    66   32  100 1    
    67   33  101 1    
    68   33  102 1    
    69   33  103 1    
    70   34   35 am   BACKBONE|DICT|INTERRES
    71   34  104 1    
    72   35   36 2    
    73   37   38 2    
    74   37   39 am   BACKBONE|DICT|INTERRES
    75   39   40 1    
    76   39  105 1    
    77   40   41 1    
    78   40   42 1    
    79   40  106 1    
    80   41  107 1    
    81   41  108 1    
    82   41  109 1    
    83   42   43 2    
    84   42   44 am   BACKBONE|DICT|INTERRES
    85   44   45 1    
    86   44  110 1    
    87   45   46 1    
    88   45   47 1    
    89   45  111 1    
    90   46  112 1    
    91   46  113 1    
    92   46  114 1    
    93   47   48 2    
    94   47   49 am   BACKBONE|DICT|INTERRES
    95   49   50 1    
    96   49  115 1    
    97   50   51 1    
    98   50   52 1    
    99   50  116 1    
   100   51  117 1    
   101   51  118 1    
   102   51  119 1    
   103   52   53 2    
   104   52   54 am   BACKBONE|DICT|INTERRES
   105   54   55 1    
   106   54  120 1    
   107   55   56 1    
   108   55   57 1    
   109   55  121 1    
   110   56  122 1    
   111   56  123 1    
   112   56  124 1    
   113   57   58 2    
   114   57   59 am   BACKBONE|DICT|INTERRES
   115   59   60 1    
   116   59  125 1    
   117   60   61 1    
   118   60   62 1    
   119   60  126 1    
   120   61  127 1    
   121   61  128 1    
   122   61  129 1    
   123   62   63 2    
   124   62   64 am   BACKBONE|DICT|INTERRES
   125   64   65 1    
   126   64  130 1    
   127   65   66 1    
   128   65   69 1    
   129   65  131 1    
   130   66   67 am   BACKBONE|DICT|INTERRES
   131   66   68 2    
   132   67  132 1    
   133   67  133 1    
   134   69   70 1    
   135   69  134 1    
   136   69  135 1    
   137   70   71 1    
   138   71  136 1    
   139   71  137 1    
@<TRIPOS>SUBSTRUCTURE
     1 UNK         1 GROUP             0       ****    0 ROOT    
