@<TRIPOS>MOLECULE
3R136
137   139    1
SMALL
USER_CHARGES


@<TRIPOS>ATOM
      1 CA         27.5064   25.4560    6.5030 C.3       0 UNK        -0.1979 
      2 C          27.2994   24.3220    5.5112 C.2       0 UNK         0.4864 
      3 O          26.4988   23.4226    5.7715 O.2       0 UNK        -0.5359 
      4 N          28.0283   24.3462    4.3874 N.am      1 UNK        -0.4318 
      5 CA         27.9558   23.3324    3.3312 C.3       1 UNK         0.0824 
      6 C6         29.2141   23.3310    2.4242 C.3       12 UNK        -0.0944 
      7 S7         29.5962   24.9480    1.6658 S.3       12 UNK        -0.2672 
      8 C8         31.1339   24.5414    0.7815 C.3       12 UNK         0.0333 
      9 C9         31.8449   25.7986    0.3022 C.ar      12 UNK        -0.0807 
     10 C10        33.0447   26.1998    0.8973 C.ar      12 UNK        -0.0894 
     11 C11        33.6902   27.3671    0.4776 C.ar      12 UNK        -0.0804 
     12 C12        33.1268   28.1389   -0.5418 C.ar      12 UNK        -0.0824 
     13 C13        31.9244   27.7524   -1.1395 C.ar      12 UNK        -0.0762 
     14 C14        31.2987   26.5699   -0.7280 C.ar      12 UNK        -0.0782 
     15 C15        31.2881   28.6300   -2.2084 C.3       12 UNK         0.0230 
     16 S16        30.5651   30.1613   -1.5197 S.3       12 UNK        -0.2608 
     17 C17        29.4121   29.5395   -0.2441 C.3       12 UNK        -0.0989 
     18 CA         27.9474   29.4015   -0.7305 C.3       5 UNK         0.0716 
     19 N          27.8355   28.5868   -1.9387 N.am      5 UNK        -0.4135 
     20 C          26.7508   28.5271   -2.7212 C.2       4 UNK         0.5031 
     21 O          25.8292   29.3435   -2.7034 O.2       4 UNK        -0.5229 
     22 CA         26.6454   27.2703   -3.5856 C.3       4 UNK         0.0329 
     23 CB         27.7168   27.2619   -4.6966 C.3       4 UNK        -0.2001 
     24 N          26.7703   26.1226   -2.6854 N.am      4 UNK        -0.4303 
     25 C          26.6303   24.8304   -2.9953 C.2       3 UNK         0.5044 
     26 O          26.3698   24.4112   -4.1235 O.2       3 UNK        -0.5152 
     27 CA         26.8239   23.8309   -1.8430 C.3       3 UNK         0.0319 
     28 CB         28.2819   23.3461   -1.7974 C.3       3 UNK        -0.2001 
     29 N          26.4661   24.3788   -0.5312 N.am      3 UNK        -0.4354 
     30 C          25.2116   24.5277   -0.0796 C.2       2 UNK         0.4964 
     31 O          24.2147   24.2933   -0.7653 O.2       2 UNK        -0.5047 
     32 CA         25.0414   24.9988    1.3839 C.3       2 UNK         0.0288 
     33 CB         23.7122   24.5292    2.0121 C.3       2 UNK        -0.2113 
     34 N          26.1740   24.6555    2.2575 N.am      2 UNK        -0.4145 
     35 C          26.6626   23.4257    2.4974 C.2       1 UNK         0.5006 
     36 O          26.1582   22.3864    2.0679 O.2       1 UNK        -0.5103 
     37 C          27.1052   28.7266    0.3694 C.2       5 UNK         0.5055 
     38 O          27.0034   27.4951    0.3761 O.2       5 UNK        -0.5220 
     39 N          26.5380   29.5267    1.2795 N.am      6 UNK        -0.4450 
     40 CA         25.8200   29.0263    2.4520 C.3       6 UNK         0.0367 
     41 CB         24.9530   30.1442    3.0580 C.3       6 UNK        -0.1929 
     42 C          26.7957   28.4404    3.4844 C.2       6 UNK         0.5070 
     43 O          26.7177   27.2520    3.7980 O.2       6 UNK        -0.5237 
     44 N          27.6983   29.2964    3.9790 N.am      7 UNK        -0.4739 
     45 CA         28.7089   28.9612    4.9795 C.3       7 UNK         0.0276 
     46 CB         29.1908   30.2588    5.6508 C.3       7 UNK        -0.1927 
     47 C          29.9017   28.2047    4.3745 C.2       7 UNK         0.5013 
     48 O          30.2072   28.3716    3.1926 O.2       7 UNK        -0.5193 
     49 N          30.5824   27.4444    5.2368 N.am      8 UNK        -0.4253 
     50 CA         31.8731   26.8063    4.9947 C.3       8 UNK         0.0242 
     51 CB         31.7027   25.2795    5.0539 C.3       8 UNK        -0.2000 
     52 C          32.8379   27.2863    6.0884 C.2       8 UNK         0.4948 
     53 O          32.3847   27.7966    7.1181 O.2       8 UNK        -0.5275 
     54 N          34.1478   27.1402    5.8448 N.am      9 UNK        -0.4246 
     55 CA         35.2891   27.5867    6.6647 C.3       9 UNK         0.0261 
     56 CB         35.2900   26.9341    8.0613 C.3       9 UNK        -0.1959 
     57 C          35.4246   29.1188    6.7563 C.2       9 UNK         0.5033 
     58 O          36.4935   29.6520    6.4552 O.2       9 UNK        -0.5390 
     59 N          34.3259   29.8069    7.0950 N.am      10 UNK        -0.4215 
     60 CA         34.1758   31.2679    7.0723 C.3       10 UNK         0.0240 
     61 CB         32.8252   31.6405    7.7049 C.3       10 UNK        -0.1982 
     62 C          34.2988   31.8803    5.6616 C.2       10 UNK         0.4970 
     63 O          34.5316   33.0834    5.5421 O.2       10 UNK        -0.4916 
     64 N          34.1622   31.0385    4.6303 N.am      11 UNK        -0.4279 
     65 CA         34.4649   31.3197    3.2224 C.3       11 UNK         0.1003 
     66 C          35.9559   31.6656    2.9245 C.2       11 UNK         0.5709 
     67 N          36.9044   31.3500    3.8011 N.am      11 UNK        -0.7358 
     68 O          36.2525   32.2394    1.8794 O.2       11 UNK        -0.4999 
     69 C69        33.9557   30.1626    2.3212 C.3       12 UNK        -0.0954 
     70 S70        34.6785   28.5414    2.7678 S.3       12 UNK        -0.2268 
     71 C71        34.9885   27.7991    1.1394 C.3       12 UNK         0.0203 
     72 H72        28.4733   25.9348    6.3621 H         1 UNK         0.0888 
     73 H73        26.7250   26.2061    6.3841 H         1 UNK         0.0888 
     74 H74        27.4667   25.0788    7.5245 H         1 UNK         0.0888 
     75 H75        28.6373   25.1296    4.1962 H         1 UNK         0.3017 
     76 H76        27.9253   22.3581    3.8245 H         1 UNK         0.0873 
     77 H77        29.1188   22.5838    1.6335 H         1 UNK         0.0745 
     78 H78        30.0778   23.0221    3.0150 H         1 UNK         0.0745 
     79 H79        31.7855   23.9659    1.4409 H         1 UNK         0.0705 
     80 H80        30.9076   23.8972   -0.0689 H         1 UNK         0.0705 
     81 H81        33.4729   25.6125    1.6980 H         1 UNK         0.1334 
     82 H82        33.6101   29.0536   -0.8571 H         1 UNK         0.1417 
     83 H83        30.3656   26.2641   -1.1795 H         1 UNK         0.1562 
     84 H84        30.5233   28.0800   -2.7564 H         1 UNK         0.0748 
     85 H85        32.0449   28.9026   -2.9455 H         1 UNK         0.0748 
     86 H86        29.4541   30.2412    0.5913 H         1 UNK         0.0940 
     87 H87        29.7790   28.5996    0.1698 H         1 UNK         0.0940 
     88 H88        27.5441   30.3950   -0.9383 H         1 UNK         0.0703 
     89 H89        28.5246   27.8587   -2.0307 H         1 UNK         0.3081 
     90 H90        25.6538   27.2487   -4.0421 H         1 UNK         0.0719 
     91 H91        28.7248   27.1568   -4.2953 H         1 UNK         0.0809 
     92 H92        27.5552   26.4461   -5.4009 H         1 UNK         0.0809 
     93 H93        27.6879   28.1877   -5.2728 H         1 UNK         0.0809 
     94 H94        26.8996   26.3532   -1.7064 H         1 UNK         0.2990 
     95 H95        26.1843   22.9680   -2.0415 H         1 UNK         0.0690 
     96 H96        28.5707   22.8884   -2.7446 H         1 UNK         0.0788 
     97 H97        28.4276   22.5973   -1.0184 H         1 UNK         0.0788 
     98 H98        28.9735   24.1673   -1.6080 H         1 UNK         0.0788 
     99 H99        27.2251   24.6263    0.0892 H         1 UNK         0.2993 
    100 H100       25.0115   26.0860    1.3389 H         1 UNK         0.0949 
    101 H101       23.6089   24.8927    3.0347 H         1 UNK         0.0767 
    102 H102       22.8569   24.9043    1.4488 H         1 UNK         0.0767 
    103 H103       23.6369   23.4415    2.0331 H         1 UNK         0.0767 
    104 H104       26.6497   25.4486    2.6780 H         1 UNK         0.3013 
    105 H105       26.6595   30.5265    1.2039 H         1 UNK         0.3121 
    106 H106       25.1471   28.2277    2.1368 H         1 UNK         0.0774 
    107 H107       25.5421   31.0136    3.3515 H         1 UNK         0.0815 
    108 H108       24.4296   29.7901    3.9473 H         1 UNK         0.0815 
    109 H109       24.1940   30.4799    2.3512 H         1 UNK         0.0815 
    110 H110       27.7220   30.2367    3.6147 H         1 UNK         0.2987 
    111 H111       28.2405   28.3314    5.7387 H         1 UNK         0.0949 
    112 H112       29.9033   30.0454    6.4486 H         1 UNK         0.0806 
    113 H113       29.6869   30.9215    4.9402 H         1 UNK         0.0806 
    114 H114       28.3619   30.8065    6.0997 H         1 UNK         0.0806 
    115 H115       30.3313   27.4834    6.2162 H         1 UNK         0.3010 
    116 H116       32.2682   27.0952    4.0180 H         1 UNK         0.0829 
    117 H117       31.0070   24.9339    4.2919 H         1 UNK         0.0813 
    118 H118       32.6503   24.7696    4.8771 H         1 UNK         0.0813 
    119 H119       31.3279   24.9495    6.0237 H         1 UNK         0.0813 
    120 H120       34.4090   26.7341    4.9561 H         1 UNK         0.3038 
    121 H121       36.1784   27.2294    6.1425 H         1 UNK         0.0769 
    122 H122       36.1964   27.1950    8.6093 H         1 UNK         0.0811 
    123 H123       34.4438   27.2546    8.6693 H         1 UNK         0.0811 
    124 H124       35.2571   25.8471    7.9894 H         1 UNK         0.0811 
    125 H125       33.4931   29.2564    7.3006 H         1 UNK         0.3204 
    126 H126       34.9748   31.6943    7.6821 H         1 UNK         0.0748 
    127 H127       32.6932   32.7230    7.7379 H         1 UNK         0.0771 
    128 H128       31.9890   31.2264    7.1406 H         1 UNK         0.0771 
    129 H129       32.7525   31.2754    8.7296 H         1 UNK         0.0771 
    130 H130       33.9793   30.0690    4.8361 H         1 UNK         0.2980 
    131 H131       33.8956   32.2122    2.9570 H         1 UNK         0.0545 
    132 H132       37.8619   31.5845    3.5940 H         1 UNK         0.3459 
    133 H133       36.6804   30.8557    4.6556 H         1 UNK         0.3459 
    134 H134       34.1537   30.3836    1.2711 H         1 UNK         0.0616 
    135 H135       32.8708   30.0765    2.4039 H         1 UNK         0.0616 
    136 H136       35.6368   26.9309    1.2663 H         1 UNK         0.0634 
    137 H137       35.5377   28.5026    0.5116 H         1 UNK         0.0634 
@<TRIPOS>BOND
     1    1    2 1    
     2    1   72 1    
     3    1   73 1    
     4    1   74 1    
     5    2    3 2    
     6    2    4 am   BACKBONE|DICT|INTERRES
     7    4    5 1    
     8    4   75 1    
     9    5    6 1    
    10    5   35 1    
    11    5   76 1    
    12    6    7 1    
    13    6   77 1    
    14    6   78 1    
    15    7    8 1    
    16    8    9 1    
    17    8   79 1    
    18    8   80 1    
    19    9   10 ar   
    20    9   14 ar   
    21   10   11 ar   
    22   10   81 1    
    23   11   12 ar   
    24   11   71 1    
    25   12   13 ar   
    26   12   82 1    
    27   13   14 ar   
    28   13   15 1    
    29   14   83 1    
    30   15   16 1    
    31   15   84 1    
    32   15   85 1    
    33   16   17 1    
    34   17   18 1    
    35   17   86 1    
    36   17   87 1    
    37   18   19 1    
    38   18   37 1    
    39   18   88 1    
    40   19   20 am   BACKBONE|DICT|INTERRES
    41   19   89 1    
    42   20   21 2    
    43   20   22 1    
    44   22   23 1    
    45   22   24 1    
    46   22   90 1    
    47   23   91 1    
    48   23   92 1    
    49   23   93 1    
    50   24   25 am   BACKBONE|DICT|INTERRES
    51   24   94 1    
    52   25   26 2    
    53   25   27 1    
    54   27   28 1    
    55   27   29 1    
    56   27   95 1    
    57   28   96 1    
    58   28   97 1    
    59   28   98 1    
    60   29   30 am   BACKBONE|DICT|INTERRES
    61   29   99 1    
    62   30   31 2    
    63   30   32 1    
    64   32   33 1    
    65   32   34 1    
    66   32  100 1    
    67   33  101 1    
    68   33  102 1    
    69   33  103 1    
    70   34   35 am   BACKBONE|DICT|INTERRES
    71   34  104 1    
    72   35   36 2    
    73   37   38 2    
    74   37   39 am   BACKBONE|DICT|INTERRES
    75   39   40 1    
    76   39  105 1    
    77   40   41 1    
    78   40   42 1    
    79   40  106 1    
    80   41  107 1    
    81   41  108 1    
    82   41  109 1    
    83   42   43 2    
    84   42   44 am   BACKBONE|DICT|INTERRES
    85   44   45 1    
    86   44  110 1    
    87   45   46 1    
    88   45   47 1    
    89   45  111 1    
    90   46  112 1    
    91   46  113 1    
    92   46  114 1    
    93   47   48 2    
    94   47   49 am   BACKBONE|DICT|INTERRES
    95   49   50 1    
    96   49  115 1    
    97   50   51 1    
    98   50   52 1    
    99   50  116 1    
   100   51  117 1    
   101   51  118 1    
   102   51  119 1    
   103   52   53 2    
   104   52   54 am   BACKBONE|DICT|INTERRES
   105   54   55 1    
   106   54  120 1    
   107   55   56 1    
   108   55   57 1    
   109   55  121 1    
   110   56  122 1    
   111   56  123 1    
   112   56  124 1    
   113   57   58 2    
   114   57   59 am   BACKBONE|DICT|INTERRES
   115   59   60 1    
   116   59  125 1    
   117   60   61 1    
   118   60   62 1    
   119   60  126 1    
   120   61  127 1    
   121   61  128 1    
   122   61  129 1    
   123   62   63 2    
   124   62   64 am   BACKBONE|DICT|INTERRES
   125   64   65 1    
   126   64  130 1    
   127   65   66 1    
   128   65   69 1    
   129   65  131 1    
   130   66   67 am   BACKBONE|DICT|INTERRES
   131   66   68 2    
   132   67  132 1    
   133   67  133 1    
   134   69   70 1    
   135   69  134 1    
   136   69  135 1    
   137   70   71 1    
   138   71  136 1    
   139   71  137 1    
@<TRIPOS>SUBSTRUCTURE
     1 UNK         1 GROUP             0       ****    0 ROOT    
