@<TRIPOS>MOLECULE
3R136
137   139    1
SMALL
USER_CHARGES


@<TRIPOS>ATOM
      1 CA         28.3884   23.8790   -4.2159 C.3       0 UNK        -0.1979 
      2 C          28.9806   24.1888   -2.8499 C.2       0 UNK         0.4864 
      3 O          28.9282   25.3366   -2.4104 O.2       0 UNK        -0.5359 
      4 N          29.5297   23.1735   -2.1682 N.am      1 UNK        -0.4318 
      5 CA         30.1592   23.2750   -0.8431 C.3       1 UNK         0.0824 
      6 C6         30.8040   21.9240   -0.4319 C.3       12 UNK        -0.0944 
      7 S7         32.3423   22.1257    0.5253 S.3       12 UNK        -0.2672 
      8 C8         31.9864   21.2235    2.0686 C.3       12 UNK         0.0333 
      9 C9         31.8337   22.1811    3.2386 C.ar      12 UNK        -0.0807 
     10 C10        32.9739   22.6951    3.8630 C.ar      12 UNK        -0.0894 
     11 C11        32.8615   23.6051    4.9191 C.ar      12 UNK        -0.0804 
     12 C12        31.5905   23.9629    5.3771 C.ar      12 UNK        -0.0824 
     13 C13        30.4416   23.4473    4.7682 C.ar      12 UNK        -0.0762 
     14 C14        30.5676   22.5594    3.6950 C.ar      12 UNK        -0.0782 
     15 C15        29.0649   23.8641    5.2651 C.3       12 UNK         0.0230 
     16 S16        28.3228   25.1529    4.2170 S.3       12 UNK        -0.2608 
     17 C17        29.5294   26.5062    4.3907 C.3       12 UNK        -0.0989 
     18 CA         29.2041   27.7776    3.5777 C.3       5 UNK         0.0716 
     19 N          29.2590   27.5845    2.1245 N.am      5 UNK        -0.4135 
     20 C          29.4653   28.6038    1.2768 C.2       4 UNK         0.5031 
     21 O          29.6430   29.7650    1.6449 O.2       4 UNK        -0.5229 
     22 CA         29.4432   28.3065   -0.2289 C.3       4 UNK         0.0329 
     23 CB         30.7594   27.6553   -0.6806 C.3       4 UNK        -0.2001 
     24 N          28.3034   27.4843   -0.6326 N.am      4 UNK        -0.4303 
     25 C          27.0182   27.8383   -0.4849 C.2       3 UNK         0.5044 
     26 O          26.6511   28.9103   -0.0060 O.2       3 UNK        -0.5152 
     27 CA         25.9614   26.8035   -0.8996 C.3       3 UNK         0.0319 
     28 CB         25.7282   26.8250   -2.4188 C.3       3 UNK        -0.2001 
     29 N          26.3180   25.4525   -0.4635 N.am      3 UNK        -0.4354 
     30 C          26.3629   25.0675    0.8203 C.2       2 UNK         0.4964 
     31 O          26.0592   25.7988    1.7617 O.2       2 UNK        -0.5047 
     32 CA         26.8526   23.6365    1.0997 C.3       2 UNK         0.0288 
     33 CB         25.6990   22.6307    0.9593 C.3       2 UNK        -0.2113 
     34 N          27.9628   23.2322    0.2350 N.am      2 UNK        -0.4145 
     35 C          29.1805   23.7983    0.2306 C.2       1 UNK         0.5006 
     36 O          29.5146   24.7223    0.9746 O.2       1 UNK        -0.5103 
     37 C          27.9229   28.4996    4.0423 C.2       5 UNK         0.5055 
     38 O          28.0070   29.3057    4.9696 O.2       5 UNK        -0.5220 
     39 N          26.7822   28.2711    3.3701 N.am      6 UNK        -0.4450 
     40 CA         25.5346   29.0122    3.5999 C.3       6 UNK         0.0367 
     41 CB         24.3839   28.3696    2.8106 C.3       6 UNK        -0.1929 
     42 C          25.6569   30.5093    3.2596 C.2       6 UNK         0.5070 
     43 O          25.1099   31.3428    3.9816 O.2       6 UNK        -0.5237 
     44 N          26.4063   30.8256    2.1950 N.am      7 UNK        -0.4739 
     45 CA         26.7667   32.1879    1.7909 C.3       7 UNK         0.0276 
     46 CB         27.1777   32.1662    0.3085 C.3       7 UNK        -0.1927 
     47 C          27.8881   32.8137    2.6455 C.2       7 UNK         0.5013 
     48 O          28.1734   33.9988    2.4689 O.2       7 UNK        -0.5193 
     49 N          28.5170   32.0163    3.5240 N.am      8 UNK        -0.4253 
     50 CA         29.6837   32.3358    4.3575 C.3       8 UNK         0.0242 
     51 CB         29.3468   33.4298    5.3929 C.3       8 UNK        -0.2000 
     52 C          30.9520   32.6508    3.5367 C.2       8 UNK         0.4948 
     53 O          31.8083   33.4099    3.9940 O.2       8 UNK        -0.5275 
     54 N          31.0604   32.0465    2.3464 N.am      9 UNK        -0.4246 
     55 CA         32.2055   32.1507    1.4414 C.3       9 UNK         0.0261 
     56 CB         31.6977   32.0537   -0.0075 C.3       9 UNK        -0.1959 
     57 C          33.2651   31.0677    1.7127 C.2       9 UNK         0.5033 
     58 O          34.3795   31.1830    1.1999 O.2       9 UNK        -0.5390 
     59 N          32.9123   30.0429    2.4981 N.am      10 UNK        -0.4215 
     60 CA         33.7756   28.9428    2.9165 C.3       10 UNK         0.0240 
     61 CB         33.5339   27.7399    1.9850 C.3       10 UNK        -0.1982 
     62 C          33.4433   28.5813    4.3759 C.2       10 UNK         0.4970 
     63 O          32.3341   28.8850    4.8175 O.2       10 UNK        -0.4916 
     64 N          34.3348   27.9251    5.1295 N.am      11 UNK        -0.4279 
     65 CA         35.7390   27.6117    4.8170 C.3       11 UNK         0.1003 
     66 C          36.6820   28.6715    5.4436 C.2       11 UNK         0.5709 
     67 N          37.7948   28.9751    4.7902 N.am      11 UNK        -0.7358 
     68 O          36.4296   29.1988    6.5258 O.2       11 UNK        -0.4999 
     69 C69        36.1194   26.1867    5.2935 C.3       12 UNK        -0.0954 
     70 S70        35.2383   24.9179    4.3272 S.3       12 UNK        -0.2268 
     71 C71        34.1028   24.2108    5.5647 C.3       12 UNK         0.0203 
     72 H72        27.3252   24.1181   -4.2266 H         1 UNK         0.0888 
     73 H73        28.8801   24.4801   -4.9803 H         1 UNK         0.0888 
     74 H74        28.5040   22.8287   -4.4831 H         1 UNK         0.0888 
     75 H75        29.5419   22.2554   -2.5897 H         1 UNK         0.3017 
     76 H76        30.9480   24.0239   -0.9451 H         1 UNK         0.0873 
     77 H77        31.0944   21.3621   -1.3216 H         1 UNK         0.0745 
     78 H78        30.0940   21.2786    0.0884 H         1 UNK         0.0745 
     79 H79        32.8133   20.5401    2.2679 H         1 UNK         0.0705 
     80 H80        31.1015   20.5944    1.9668 H         1 UNK         0.0705 
     81 H81        33.9532   22.4080    3.5047 H         1 UNK         0.1334 
     82 H82        31.4918   24.6604    6.1978 H         1 UNK         0.1417 
     83 H83        29.6803   22.1749    3.2105 H         1 UNK         0.1562 
     84 H84        29.1178   24.2234    6.2940 H         1 UNK         0.0748 
     85 H85        28.4031   22.9969    5.2794 H         1 UNK         0.0748 
     86 H86        30.5084   26.1425    4.0763 H         1 UNK         0.0940 
     87 H87        29.6290   26.7529    5.4495 H         1 UNK         0.0940 
     88 H88        30.0109   28.4724    3.8152 H         1 UNK         0.0703 
     89 H89        29.1439   26.6388    1.7718 H         1 UNK         0.3081 
     90 H90        29.3481   29.2624   -0.7481 H         1 UNK         0.0719 
     91 H91        30.7739   27.5000   -1.7595 H         1 UNK         0.0809 
     92 H92        31.6113   28.2896   -0.4325 H         1 UNK         0.0809 
     93 H93        30.9204   26.6886   -0.2031 H         1 UNK         0.0809 
     94 H94        28.5157   26.6019   -1.0944 H         1 UNK         0.2990 
     95 H95        25.0223   27.0752   -0.4127 H         1 UNK         0.0690 
     96 H96        25.4193   27.8180   -2.7481 H         1 UNK         0.0788 
     97 H97        24.9412   26.1290   -2.7095 H         1 UNK         0.0788 
     98 H98        26.6291   26.5656   -2.9751 H         1 UNK         0.0788 
     99 H99        26.6204   24.8059   -1.1764 H         1 UNK         0.2993 
    100 H100       27.2061   23.6003    2.1304 H         1 UNK         0.0949 
    101 H101       25.3149   22.5921   -0.0610 H         1 UNK         0.0767 
    102 H102       26.0135   21.6250    1.2393 H         1 UNK         0.0767 
    103 H103       24.8669   22.9009    1.6112 H         1 UNK         0.0767 
    104 H104       27.7774   22.4920   -0.4260 H         1 UNK         0.3013 
    105 H105       26.7612   27.5480    2.6574 H         1 UNK         0.3121 
    106 H106       25.2972   28.9364    4.6632 H         1 UNK         0.0774 
    107 H107       24.5768   28.3767    1.7377 H         1 UNK         0.0815 
    108 H108       23.4484   28.9048    2.9780 H         1 UNK         0.0815 
    109 H109       24.2238   27.3355    3.1156 H         1 UNK         0.0815 
    110 H110       26.7514   30.0740    1.6035 H         1 UNK         0.2987 
    111 H111       25.8866   32.8261    1.8946 H         1 UNK         0.0949 
    112 H112       28.0587   31.5441    0.1452 H         1 UNK         0.0806 
    113 H113       26.3753   31.7792   -0.3198 H         1 UNK         0.0806 
    114 H114       27.4147   33.1688   -0.0501 H         1 UNK         0.0806 
    115 H115       28.1925   31.0596    3.5916 H         1 UNK         0.3010 
    116 H116       29.9107   31.4230    4.9107 H         1 UNK         0.0829 
    117 H117       28.4528   33.1745    5.9620 H         1 UNK         0.0813 
    118 H118       30.1601   33.5543    6.1088 H         1 UNK         0.0813 
    119 H119       29.1803   34.3985    4.9208 H         1 UNK         0.0813 
    120 H120       30.3382   31.3811    2.0711 H         1 UNK         0.3038 
    121 H121       32.6845   33.1234    1.5717 H         1 UNK         0.0769 
    122 H122       31.2346   31.0874   -0.2101 H         1 UNK         0.0811 
    123 H123       32.5165   32.1778   -0.7175 H         1 UNK         0.0811 
    124 H124       30.9619   32.8290   -0.2222 H         1 UNK         0.0811 
    125 H125       31.9970   30.0490    2.9296 H         1 UNK         0.3204 
    126 H126       34.8129   29.2732    2.8507 H         1 UNK         0.0748 
    127 H127       34.1631   26.8920    2.2553 H         1 UNK         0.0771 
    128 H128       32.4981   27.3997    2.0292 H         1 UNK         0.0771 
    129 H129       33.7602   27.9908    0.9487 H         1 UNK         0.0771 
    130 H130       34.0779   27.7365    6.0863 H         1 UNK         0.2980 
    131 H131       35.9022   27.6291    3.7401 H         1 UNK         0.0545 
    132 H132       38.4251   29.6534    5.1890 H         1 UNK         0.3459 
    133 H133       38.0244   28.5369    3.9117 H         1 UNK         0.3459 
    134 H134       37.1876   26.0079    5.1556 H         1 UNK         0.0616 
    135 H135       35.9256   26.0604    6.3602 H         1 UNK         0.0616 
    136 H136       33.8137   24.9915    6.2699 H         1 UNK         0.0634 
    137 H137       34.6263   23.4454    6.1388 H         1 UNK         0.0634 
@<TRIPOS>BOND
     1    1    2 1    
     2    1   72 1    
     3    1   73 1    
     4    1   74 1    
     5    2    3 2    
     6    2    4 am   BACKBONE|DICT|INTERRES
     7    4    5 1    
     8    4   75 1    
     9    5    6 1    
    10    5   35 1    
    11    5   76 1    
    12    6    7 1    
    13    6   77 1    
    14    6   78 1    
    15    7    8 1    
    16    8    9 1    
    17    8   79 1    
    18    8   80 1    
    19    9   10 ar   
    20    9   14 ar   
    21   10   11 ar   
    22   10   81 1    
    23   11   12 ar   
    24   11   71 1    
    25   12   13 ar   
    26   12   82 1    
    27   13   14 ar   
    28   13   15 1    
    29   14   83 1    
    30   15   16 1    
    31   15   84 1    
    32   15   85 1    
    33   16   17 1    
    34   17   18 1    
    35   17   86 1    
    36   17   87 1    
    37   18   19 1    
    38   18   37 1    
    39   18   88 1    
    40   19   20 am   BACKBONE|DICT|INTERRES
    41   19   89 1    
    42   20   21 2    
    43   20   22 1    
    44   22   23 1    
    45   22   24 1    
    46   22   90 1    
    47   23   91 1    
    48   23   92 1    
    49   23   93 1    
    50   24   25 am   BACKBONE|DICT|INTERRES
    51   24   94 1    
    52   25   26 2    
    53   25   27 1    
    54   27   28 1    
    55   27   29 1    
    56   27   95 1    
    57   28   96 1    
    58   28   97 1    
    59   28   98 1    
    60   29   30 am   BACKBONE|DICT|INTERRES
    61   29   99 1    
    62   30   31 2    
    63   30   32 1    
    64   32   33 1    
    65   32   34 1    
    66   32  100 1    
    67   33  101 1    
    68   33  102 1    
    69   33  103 1    
    70   34   35 am   BACKBONE|DICT|INTERRES
    71   34  104 1    
    72   35   36 2    
    73   37   38 2    
    74   37   39 am   BACKBONE|DICT|INTERRES
    75   39   40 1    
    76   39  105 1    
    77   40   41 1    
    78   40   42 1    
    79   40  106 1    
    80   41  107 1    
    81   41  108 1    
    82   41  109 1    
    83   42   43 2    
    84   42   44 am   BACKBONE|DICT|INTERRES
    85   44   45 1    
    86   44  110 1    
    87   45   46 1    
    88   45   47 1    
    89   45  111 1    
    90   46  112 1    
    91   46  113 1    
    92   46  114 1    
    93   47   48 2    
    94   47   49 am   BACKBONE|DICT|INTERRES
    95   49   50 1    
    96   49  115 1    
    97   50   51 1    
    98   50   52 1    
    99   50  116 1    
   100   51  117 1    
   101   51  118 1    
   102   51  119 1    
   103   52   53 2    
   104   52   54 am   BACKBONE|DICT|INTERRES
   105   54   55 1    
   106   54  120 1    
   107   55   56 1    
   108   55   57 1    
   109   55  121 1    
   110   56  122 1    
   111   56  123 1    
   112   56  124 1    
   113   57   58 2    
   114   57   59 am   BACKBONE|DICT|INTERRES
   115   59   60 1    
   116   59  125 1    
   117   60   61 1    
   118   60   62 1    
   119   60  126 1    
   120   61  127 1    
   121   61  128 1    
   122   61  129 1    
   123   62   63 2    
   124   62   64 am   BACKBONE|DICT|INTERRES
   125   64   65 1    
   126   64  130 1    
   127   65   66 1    
   128   65   69 1    
   129   65  131 1    
   130   66   67 am   BACKBONE|DICT|INTERRES
   131   66   68 2    
   132   67  132 1    
   133   67  133 1    
   134   69   70 1    
   135   69  134 1    
   136   69  135 1    
   137   70   71 1    
   138   71  136 1    
   139   71  137 1    
@<TRIPOS>SUBSTRUCTURE
     1 UNK         1 GROUP             0       ****    0 ROOT    
