@<TRIPOS>MOLECULE
3R136
137   139    1
SMALL
USER_CHARGES


@<TRIPOS>ATOM
      1 CA         26.9214   24.0684   -2.7973 C.3       0 UNK        -0.1979 
      2 C          27.9951   23.5949   -1.8298 C.2       0 UNK         0.4864 
      3 O          29.0758   23.1960   -2.2646 O.2       0 UNK        -0.5359 
      4 N          27.7062   23.6289   -0.5247 N.am      1 UNK        -0.4318 
      5 CA         28.6059   23.2107    0.5450 C.3       1 UNK         0.0824 
      6 C6         28.5237   21.6804    0.7736 C.3       12 UNK        -0.0944 
      7 S7         29.7520   20.9964    1.9336 S.3       12 UNK        -0.2672 
      8 C8         31.3209   21.2470    1.0399 C.3       12 UNK         0.0333 
      9 C9         32.0224   22.5205    1.4933 C.ar      12 UNK        -0.0807 
     10 C10        32.4747   22.6258    2.8105 C.ar      12 UNK        -0.0894 
     11 C11        33.1403   23.7724    3.2482 C.ar      12 UNK        -0.0804 
     12 C12        33.3340   24.8333    2.3568 C.ar      12 UNK        -0.0824 
     13 C13        32.8833   24.7486    1.0341 C.ar      12 UNK        -0.0762 
     14 C14        32.2469   23.5766    0.6045 C.ar      12 UNK        -0.0782 
     15 C15        33.1515   25.9097    0.0761 C.3       12 UNK         0.0230 
     16 S16        31.8285   26.2062   -1.1475 S.3       12 UNK        -0.2608 
     17 C17        30.4857   26.8265   -0.0838 C.3       12 UNK        -0.0989 
     18 CA         29.2537   27.3223   -0.8893 C.3       5 UNK         0.0716 
     19 N          28.0263   27.2097   -0.0938 N.am      5 UNK        -0.4135 
     20 C          26.7832   27.2105   -0.6003 C.2       4 UNK         0.5031 
     21 O          26.5494   27.1983   -1.8096 O.2       4 UNK        -0.5229 
     22 CA         25.5909   27.2074    0.3775 C.3       4 UNK         0.0329 
     23 CB         24.6557   26.0127    0.1171 C.3       4 UNK        -0.2001 
     24 N          26.0062   27.1899    1.7817 N.am      4 UNK        -0.4303 
     25 C          26.1262   28.2795    2.5543 C.2       3 UNK         0.5044 
     26 O          25.8193   29.4131    2.1865 O.2       3 UNK        -0.5152 
     27 CA         26.6938   28.0927    3.9757 C.3       3 UNK         0.0319 
     28 CB         25.5687   28.1490    5.0207 C.3       3 UNK        -0.2001 
     29 N          27.4690   26.8631    4.1709 N.am      3 UNK        -0.4354 
     30 C          28.6000   26.5577    3.5209 C.2       2 UNK         0.4964 
     31 O          29.1016   27.2814    2.6620 O.2       2 UNK        -0.5047 
     32 CA         29.2469   25.1881    3.8095 C.3       2 UNK         0.0288 
     33 CB         28.5990   24.4102    4.9756 C.3       2 UNK        -0.2113 
     34 N          29.2932   24.3474    2.6064 N.am      2 UNK        -0.4145 
     35 C          28.2689   24.0411    1.7939 C.2       1 UNK         0.5006 
     36 O          27.1034   24.4077    1.9764 O.2       1 UNK        -0.5103 
     37 C          29.4488   28.7670   -1.4051 C.2       5 UNK         0.5055 
     38 O          28.6946   29.6702   -1.0373 O.2       5 UNK        -0.5220 
     39 N          30.4918   28.9724   -2.2228 N.am      6 UNK        -0.4450 
     40 CA         30.9515   30.2931   -2.6713 C.3       6 UNK         0.0367 
     41 CB         32.0754   30.1249   -3.7059 C.3       6 UNK        -0.1929 
     42 C          31.4156   31.1802   -1.5006 C.2       6 UNK         0.5070 
     43 O          31.1535   32.3832   -1.5014 O.2       6 UNK        -0.5237 
     44 N          32.0399   30.5547   -0.4938 N.am      7 UNK        -0.4739 
     45 CA         32.2970   31.1336    0.8229 C.3       7 UNK         0.0276 
     46 CB         33.5731   30.4989    1.4032 C.3       7 UNK        -0.1927 
     47 C          31.0602   30.8959    1.7073 C.2       7 UNK         0.5013 
     48 O          31.0762   30.0085    2.5617 O.2       7 UNK        -0.5193 
     49 N          29.9888   31.6509    1.4275 N.am      8 UNK        -0.4253 
     50 CA         28.6471   31.5069    2.0004 C.3       8 UNK         0.0242 
     51 CB         27.6454   32.2586    1.1032 C.3       8 UNK        -0.2000 
     52 C          28.5618   31.9596    3.4712 C.2       8 UNK         0.4948 
     53 O          27.9069   32.9576    3.7797 O.2       8 UNK        -0.5275 
     54 N          29.2357   31.2179    4.3500 N.am      9 UNK        -0.4246 
     55 CA         29.2793   31.3893    5.7982 C.3       9 UNK         0.0261 
     56 CB         30.1998   32.5734    6.1701 C.3       9 UNK        -0.1959 
     57 C          29.7244   30.0489    6.4020 C.2       9 UNK         0.5033 
     58 O          29.4848   29.0017    5.7965 O.2       9 UNK        -0.5390 
     59 N          30.4130   30.0770    7.5502 N.am      10 UNK        -0.4215 
     60 CA         31.0477   28.9103    8.1757 C.3       10 UNK         0.0240 
     61 CB         31.3063   29.2186    9.6628 C.3       10 UNK        -0.1982 
     62 C          32.3277   28.4873    7.4211 C.2       10 UNK         0.4970 
     63 O          33.4168   28.5045    7.9969 O.2       10 UNK        -0.4916 
     64 N          32.1653   28.1613    6.1322 N.am      11 UNK        -0.4279 
     65 CA         33.2098   27.8032    5.1571 C.3       11 UNK         0.1003 
     66 C          34.1828   28.9644    4.7842 C.2       11 UNK         0.5709 
     67 N          33.9163   30.2091    5.1633 N.am      11 UNK        -0.7358 
     68 O          35.1856   28.7408    4.1102 O.2       11 UNK        -0.4999 
     69 C69        33.9655   26.4980    5.5353 C.3       12 UNK        -0.0954 
     70 S70        32.8530   25.0600    5.7068 S.3       12 UNK        -0.2268 
     71 C71        33.6907   23.8231    4.6680 C.3       12 UNK         0.0203 
     72 H72        26.6778   23.2772   -3.5056 H         1 UNK         0.0888 
     73 H73        26.0053   24.3562   -2.2822 H         1 UNK         0.0888 
     74 H74        27.2783   24.9316   -3.3585 H         1 UNK         0.0888 
     75 H75        26.8203   23.9877   -0.1939 H         1 UNK         0.3017 
     76 H76        29.6155   23.4770    0.2393 H         1 UNK         0.0873 
     77 H77        28.6474   21.1561   -0.1754 H         1 UNK         0.0745 
     78 H78        27.5298   21.4064    1.1323 H         1 UNK         0.0745 
     79 H79        31.1439   21.2513   -0.0369 H         1 UNK         0.0705 
     80 H80        31.9752   20.3969    1.2382 H         1 UNK         0.0705 
     81 H81        32.3195   21.7997    3.4917 H         1 UNK         0.1334 
     82 H82        33.8561   25.7199    2.6876 H         1 UNK         0.1417 
     83 H83        31.9256   23.4859   -0.4247 H         1 UNK         0.1562 
     84 H84        34.0769   25.7006   -0.4618 H         1 UNK         0.0748 
     85 H85        33.3215   26.8329    0.6325 H         1 UNK         0.0748 
     86 H86        30.8630   27.5987    0.5911 H         1 UNK         0.0940 
     87 H87        30.2005   25.9940    0.5570 H         1 UNK         0.0940 
     88 H88        29.1285   26.6786   -1.7629 H         1 UNK         0.0703 
     89 H89        28.1507   27.2828    0.9108 H         1 UNK         0.3081 
     90 H90        25.0222   28.1170    0.1733 H         1 UNK         0.0719 
     91 H91        24.2964   26.0107   -0.9129 H         1 UNK         0.0809 
     92 H92        25.1498   25.0584    0.2930 H         1 UNK         0.0809 
     93 H93        23.7773   26.0546    0.7613 H         1 UNK         0.0809 
     94 H94        26.2979   26.2897    2.1505 H         1 UNK         0.2990 
     95 H95        27.3660   28.9329    4.1570 H         1 UNK         0.0690 
     96 H96        25.9693   28.1279    6.0345 H         1 UNK         0.0788 
     97 H97        24.8754   27.3140    4.9126 H         1 UNK         0.0788 
     98 H98        24.9904   29.0688    4.9229 H         1 UNK         0.0788 
     99 H99        27.1080   26.1989    4.8397 H         1 UNK         0.2993 
    100 H100       30.2819   25.3989    4.0819 H         1 UNK         0.0949 
    101 H101       27.5662   24.1316    4.7638 H         1 UNK         0.0767 
    102 H102       29.1497   23.4913    5.1780 H         1 UNK         0.0767 
    103 H103       28.6108   24.9947    5.8966 H         1 UNK         0.0767 
    104 H104       30.2109   23.9937    2.3687 H         1 UNK         0.3013 
    105 H105       31.0690   28.1780   -2.4671 H         1 UNK         0.3121 
    106 H106       30.1100   30.7950   -3.1538 H         1 UNK         0.0774 
    107 H107       32.4211   31.0952   -4.0654 H         1 UNK         0.0815 
    108 H108       32.9387   29.6063   -3.2871 H         1 UNK         0.0815 
    109 H109       31.7340   29.5625   -4.5751 H         1 UNK         0.0815 
    110 H110       32.1871   29.5597   -0.5781 H         1 UNK         0.2987 
    111 H111       32.4611   32.2104    0.7382 H         1 UNK         0.0949 
    112 H112       34.4338   30.6773    0.7587 H         1 UNK         0.0806 
    113 H113       33.8062   30.9278    2.3778 H         1 UNK         0.0806 
    114 H114       33.4724   29.4209    1.5362 H         1 UNK         0.0806 
    115 H115       30.0800   32.3289    0.6829 H         1 UNK         0.3010 
    116 H116       28.3865   30.4464    1.9713 H         1 UNK         0.0829 
    117 H117       27.8581   33.3275    1.0637 H         1 UNK         0.0813 
    118 H118       26.6267   32.1390    1.4749 H         1 UNK         0.0813 
    119 H119       27.6594   31.8752    0.0831 H         1 UNK         0.0813 
    120 H120       29.7564   30.4171    3.9959 H         1 UNK         0.3038 
    121 H121       28.2684   31.5892    6.1584 H         1 UNK         0.0769 
    122 H122       30.1765   32.7807    7.2403 H         1 UNK         0.0811 
    123 H123       29.8867   33.4909    5.6718 H         1 UNK         0.0811 
    124 H124       31.2357   32.3839    5.8859 H         1 UNK         0.0811 
    125 H125       30.5940   30.9724    7.9805 H         1 UNK         0.3204 
    126 H126       30.3547   28.0672    8.1291 H         1 UNK         0.0748 
    127 H127       31.7480   28.3590   10.1687 H         1 UNK         0.0771 
    128 H128       31.9899   30.0591    9.7900 H         1 UNK         0.0771 
    129 H129       30.3796   29.4573   10.1851 H         1 UNK         0.0771 
    130 H130       31.2223   28.2356    5.7588 H         1 UNK         0.2980 
    131 H131       32.6693   27.6046    4.2306 H         1 UNK         0.0545 
    132 H132       34.5542   30.9469    4.9123 H         1 UNK         0.3459 
    133 H133       33.0973   30.4099    5.7112 H         1 UNK         0.3459 
    134 H134       34.7245   26.2714    4.7862 H         1 UNK         0.0616 
    135 H135       34.5095   26.6230    6.4722 H         1 UNK         0.0616 
    136 H136       33.5715   22.8528    5.1523 H         1 UNK         0.0634 
    137 H137       34.7656   24.0053    4.6415 H         1 UNK         0.0634 
@<TRIPOS>BOND
     1    1    2 1    
     2    1   72 1    
     3    1   73 1    
     4    1   74 1    
     5    2    3 2    
     6    2    4 am   BACKBONE|DICT|INTERRES
     7    4    5 1    
     8    4   75 1    
     9    5    6 1    
    10    5   35 1    
    11    5   76 1    
    12    6    7 1    
    13    6   77 1    
    14    6   78 1    
    15    7    8 1    
    16    8    9 1    
    17    8   79 1    
    18    8   80 1    
    19    9   10 ar   
    20    9   14 ar   
    21   10   11 ar   
    22   10   81 1    
    23   11   12 ar   
    24   11   71 1    
    25   12   13 ar   
    26   12   82 1    
    27   13   14 ar   
    28   13   15 1    
    29   14   83 1    
    30   15   16 1    
    31   15   84 1    
    32   15   85 1    
    33   16   17 1    
    34   17   18 1    
    35   17   86 1    
    36   17   87 1    
    37   18   19 1    
    38   18   37 1    
    39   18   88 1    
    40   19   20 am   BACKBONE|DICT|INTERRES
    41   19   89 1    
    42   20   21 2    
    43   20   22 1    
    44   22   23 1    
    45   22   24 1    
    46   22   90 1    
    47   23   91 1    
    48   23   92 1    
    49   23   93 1    
    50   24   25 am   BACKBONE|DICT|INTERRES
    51   24   94 1    
    52   25   26 2    
    53   25   27 1    
    54   27   28 1    
    55   27   29 1    
    56   27   95 1    
    57   28   96 1    
    58   28   97 1    
    59   28   98 1    
    60   29   30 am   BACKBONE|DICT|INTERRES
    61   29   99 1    
    62   30   31 2    
    63   30   32 1    
    64   32   33 1    
    65   32   34 1    
    66   32  100 1    
    67   33  101 1    
    68   33  102 1    
    69   33  103 1    
    70   34   35 am   BACKBONE|DICT|INTERRES
    71   34  104 1    
    72   35   36 2    
    73   37   38 2    
    74   37   39 am   BACKBONE|DICT|INTERRES
    75   39   40 1    
    76   39  105 1    
    77   40   41 1    
    78   40   42 1    
    79   40  106 1    
    80   41  107 1    
    81   41  108 1    
    82   41  109 1    
    83   42   43 2    
    84   42   44 am   BACKBONE|DICT|INTERRES
    85   44   45 1    
    86   44  110 1    
    87   45   46 1    
    88   45   47 1    
    89   45  111 1    
    90   46  112 1    
    91   46  113 1    
    92   46  114 1    
    93   47   48 2    
    94   47   49 am   BACKBONE|DICT|INTERRES
    95   49   50 1    
    96   49  115 1    
    97   50   51 1    
    98   50   52 1    
    99   50  116 1    
   100   51  117 1    
   101   51  118 1    
   102   51  119 1    
   103   52   53 2    
   104   52   54 am   BACKBONE|DICT|INTERRES
   105   54   55 1    
   106   54  120 1    
   107   55   56 1    
   108   55   57 1    
   109   55  121 1    
   110   56  122 1    
   111   56  123 1    
   112   56  124 1    
   113   57   58 2    
   114   57   59 am   BACKBONE|DICT|INTERRES
   115   59   60 1    
   116   59  125 1    
   117   60   61 1    
   118   60   62 1    
   119   60  126 1    
   120   61  127 1    
   121   61  128 1    
   122   61  129 1    
   123   62   63 2    
   124   62   64 am   BACKBONE|DICT|INTERRES
   125   64   65 1    
   126   64  130 1    
   127   65   66 1    
   128   65   69 1    
   129   65  131 1    
   130   66   67 am   BACKBONE|DICT|INTERRES
   131   66   68 2    
   132   67  132 1    
   133   67  133 1    
   134   69   70 1    
   135   69  134 1    
   136   69  135 1    
   137   70   71 1    
   138   71  136 1    
   139   71  137 1    
@<TRIPOS>SUBSTRUCTURE
     1 UNK         1 GROUP             0       ****    0 ROOT    
