@<TRIPOS>MOLECULE
3R136
137   139    1
SMALL
USER_CHARGES


@<TRIPOS>ATOM
      1 CA         32.3343   23.7504   -1.3664 C.3       0 UNK        -0.1979 
      2 C          31.2396   22.8571   -0.8006 C.2       0 UNK         0.4864 
      3 O          30.8458   21.8896   -1.4519 O.2       0 UNK        -0.5359 
      4 N          30.7459   23.1817    0.4041 N.am      1 UNK        -0.4318 
      5 CA         29.7025   22.4518    1.1423 C.3       1 UNK         0.0824 
      6 C6         30.1583   21.0226    1.5646 C.3       12 UNK        -0.0944 
      7 S7         29.6462   20.5869    3.2620 S.3       12 UNK        -0.2672 
      8 C8         31.0892   21.1299    4.2399 C.3       12 UNK         0.0333 
      9 C9         31.2174   22.6465    4.2435 C.ar      12 UNK        -0.0807 
     10 C10        32.1644   23.2822    3.4343 C.ar      12 UNK        -0.0894 
     11 C11        32.2197   24.6783    3.3717 C.ar      12 UNK        -0.0804 
     12 C12        31.3341   25.4388    4.1403 C.ar      12 UNK        -0.0824 
     13 C13        30.4040   24.8129    4.9759 C.ar      12 UNK        -0.0762 
     14 C14        30.3555   23.4170    5.0288 C.ar      12 UNK        -0.0782 
     15 C15        29.4388   25.6445    5.8083 C.3       12 UNK         0.0230 
     16 S16        27.6943   25.3786    5.3410 S.3       12 UNK        -0.2608 
     17 C17        27.6931   25.7357    3.5503 C.3       12 UNK        -0.0989 
     18 CA         27.8518   27.2404    3.2121 C.3       5 UNK         0.0716 
     19 N          28.4285   27.4022    1.8756 N.am      5 UNK        -0.4135 
     20 C          29.4464   28.2105    1.5448 C.2       4 UNK         0.5031 
     21 O          30.0896   28.8839    2.3507 O.2       4 UNK        -0.5229 
     22 CA         29.8387   28.2825    0.0539 C.3       4 UNK         0.0329 
     23 CB         31.1111   27.4579   -0.1997 C.3       4 UNK        -0.2001 
     24 N          28.7943   27.8423   -0.8764 N.am      4 UNK        -0.4303 
     25 C          27.5974   28.4271   -1.0244 C.2       3 UNK         0.5044 
     26 O          27.2589   29.4419   -0.4175 O.2       3 UNK        -0.5152 
     27 CA         26.5740   27.7020   -1.9198 C.3       3 UNK         0.0319 
     28 CB         26.6808   28.2007   -3.3688 C.3       3 UNK        -0.2001 
     29 N          26.6832   26.2349   -1.8944 N.am      3 UNK        -0.4354 
     30 C          26.6365   25.4694   -0.7929 C.2       2 UNK         0.4964 
     31 O          26.5134   25.9282    0.3438 O.2       2 UNK        -0.5047 
     32 CA         26.8371   23.9572   -0.9554 C.3       2 UNK         0.0288 
     33 CB         26.9048   23.4654   -2.4171 C.3       2 UNK        -0.2113 
     34 N          28.0759   23.6204   -0.2624 N.am      2 UNK        -0.4145 
     35 C          28.3178   22.5133    0.4503 C.2       1 UNK         0.5006 
     36 O          27.5067   21.5940    0.5785 O.2       1 UNK        -0.5103 
     37 C          26.5189   28.0134    3.3543 C.2       5 UNK         0.5055 
     38 O          26.0692   28.2298    4.4810 O.2       5 UNK        -0.5220 
     39 N          25.9134   28.4461    2.2349 N.am      6 UNK        -0.4450 
     40 CA         24.8466   29.4537    2.2254 C.3       6 UNK         0.0367 
     41 CB         24.0777   29.4037    0.8951 C.3       6 UNK        -0.1929 
     42 C          25.4357   30.8530    2.4814 C.2       6 UNK         0.5070 
     43 O          24.8477   31.6397    3.2244 O.2       6 UNK        -0.5237 
     44 N          26.6198   31.1073    1.9060 N.am      7 UNK        -0.4739 
     45 CA         27.5433   32.1713    2.3021 C.3       7 UNK         0.0276 
     46 CB         28.6379   32.2844    1.2278 C.3       7 UNK        -0.1927 
     47 C          28.1686   31.8832    3.6821 C.2       7 UNK         0.5013 
     48 O          28.0936   30.7565    4.1772 O.2       7 UNK        -0.5193 
     49 N          28.8049   32.8974    4.2805 N.am      8 UNK        -0.4253 
     50 CA         29.4311   32.8359    5.6073 C.3       8 UNK         0.0242 
     51 CB         29.6169   34.2734    6.1307 C.3       8 UNK        -0.2000 
     52 C          30.7440   32.0196    5.6328 C.2       8 UNK         0.4948 
     53 O          31.7938   32.5687    5.9717 O.2       8 UNK        -0.5275 
     54 N          30.6506   30.7285    5.2774 N.am      9 UNK        -0.4246 
     55 CA         31.7175   29.7221    5.2026 C.3       9 UNK         0.0261 
     56 CB         32.2237   29.3549    6.6127 C.3       9 UNK        -0.1959 
     57 C          32.8469   30.1612    4.2545 C.2       9 UNK         0.5033 
     58 O          33.9779   30.3868    4.6916 O.2       9 UNK        -0.5390 
     59 N          32.5058   30.3000    2.9658 N.am      10 UNK        -0.4215 
     60 CA         33.3616   30.8906    1.9273 C.3       10 UNK         0.0240 
     61 CB         32.5563   31.0639    0.6303 C.3       10 UNK        -0.1982 
     62 C          34.6805   30.1413    1.6549 C.2       10 UNK         0.4970 
     63 O          35.6061   30.7485    1.1146 O.2       10 UNK        -0.4916 
     64 N          34.7573   28.8611    2.0406 N.am      11 UNK        -0.4279 
     65 CA         35.9967   28.0700    2.0490 C.3       11 UNK         0.1003 
     66 C          36.9957   28.4346    3.1890 C.2       11 UNK         0.5709 
     67 N          36.6259   29.2390    4.1799 N.am      11 UNK        -0.7358 
     68 O          38.1409   27.9895    3.1621 O.2       11 UNK        -0.4999 
     69 C69        35.7113   26.5466    1.9788 C.3       12 UNK        -0.0954 
     70 S70        34.6926   25.9092    3.3558 S.3       12 UNK        -0.2268 
     71 C71        33.2151   25.3658    2.4526 C.3       12 UNK         0.0203 
     72 H72        33.2346   23.1654   -1.5525 H         1 UNK         0.0888 
     73 H73        32.0110   24.1863   -2.3113 H         1 UNK         0.0888 
     74 H74        32.5948   24.5637   -0.6904 H         1 UNK         0.0888 
     75 H75        31.1312   23.9758    0.8937 H         1 UNK         0.3017 
     76 H76        29.5635   23.0402    2.0497 H         1 UNK         0.0873 
     77 H77        29.7888   20.2644    0.8717 H         1 UNK         0.0745 
     78 H78        31.2450   20.9376    1.5194 H         1 UNK         0.0745 
     79 H79        30.9764   20.7732    5.2648 H         1 UNK         0.0705 
     80 H80        31.9949   20.6612    3.8517 H         1 UNK         0.0705 
     81 H81        32.8372   22.6898    2.8291 H         1 UNK         0.1334 
     82 H82        31.3702   26.5177    4.0838 H         1 UNK         0.1417 
     83 H83        29.6201   22.9300    5.6552 H         1 UNK         0.1562 
     84 H84        29.6740   26.7071    5.7341 H         1 UNK         0.0748 
     85 H85        29.5624   25.3825    6.8599 H         1 UNK         0.0748 
     86 H86        28.4991   25.1576    3.0973 H         1 UNK         0.0940 
     87 H87        26.7783   25.3307    3.1124 H         1 UNK         0.0940 
     88 H88        28.5373   27.6888    3.9331 H         1 UNK         0.0703 
     89 H89        27.9496   26.8853    1.1446 H         1 UNK         0.3081 
     90 H90        30.0519   29.3290   -0.1707 H         1 UNK         0.0719 
     91 H91        30.9498   26.3982   -0.0032 H         1 UNK         0.0809 
     92 H92        31.4544   27.5622   -1.2292 H         1 UNK         0.0809 
     93 H93        31.9271   27.7890    0.4428 H         1 UNK         0.0809 
     94 H94        28.9931   27.0254   -1.4344 H         1 UNK         0.2990 
     95 H95        25.5806   27.9565   -1.5456 H         1 UNK         0.0690 
     96 H96        25.8930   27.7788   -3.9932 H         1 UNK         0.0788 
     97 H97        27.6408   27.9415   -3.8171 H         1 UNK         0.0788 
     98 H98        26.5812   29.2863   -3.4162 H         1 UNK         0.0788 
     99 H99        26.7967   25.7758   -2.7871 H         1 UNK         0.2993 
    100 H100       25.9924   23.4744   -0.4588 H         1 UNK         0.0949 
    101 H101       27.0017   22.3800   -2.4542 H         1 UNK         0.0767 
    102 H102       25.9966   23.7204   -2.9651 H         1 UNK         0.0767 
    103 H103       27.7564   23.8846   -2.9546 H         1 UNK         0.0767 
    104 H104       28.7969   24.3250   -0.2898 H         1 UNK         0.3013 
    105 H105       26.3250   28.2193    1.3413 H         1 UNK         0.3121 
    106 H106       24.1437   29.2276    3.0302 H         1 UNK         0.0774 
    107 H107       24.6951   29.7105    0.0513 H         1 UNK         0.0815 
    108 H108       23.2184   30.0747    0.9237 H         1 UNK         0.0815 
    109 H109       23.7003   28.4016    0.6906 H         1 UNK         0.0815 
    110 H110       26.9854   30.4208    1.2539 H         1 UNK         0.2987 
    111 H111       26.9900   33.1112    2.3586 H         1 UNK         0.0949 
    112 H112       29.2209   31.3660    1.1553 H         1 UNK         0.0806 
    113 H113       28.2097   32.4838    0.2451 H         1 UNK         0.0806 
    114 H114       29.3319   33.0962    1.4485 H         1 UNK         0.0806 
    115 H115       28.8637   33.7839    3.8001 H         1 UNK         0.3010 
    116 H116       28.7385   32.3315    6.2851 H         1 UNK         0.0829 
    117 H117       30.2906   34.8508    5.4962 H         1 UNK         0.0813 
    118 H118       28.6660   34.8040    6.1826 H         1 UNK         0.0813 
    119 H119       30.0379   34.2721    7.1372 H         1 UNK         0.0813 
    120 H120       29.7359   30.4288    4.9409 H         1 UNK         0.3038 
    121 H121       31.2703   28.8259    4.7719 H         1 UNK         0.0769 
    122 H122       32.9720   28.5628    6.5625 H         1 UNK         0.0811 
    123 H123       32.6855   30.2066    7.1134 H         1 UNK         0.0811 
    124 H124       31.4114   28.9948    7.2438 H         1 UNK         0.0811 
    125 H125       31.5672   30.0138    2.6915 H         1 UNK         0.3204 
    126 H126       33.6384   31.8860    2.2810 H         1 UNK         0.0748 
    127 H127       33.1406   31.5963   -0.1215 H         1 UNK         0.0771 
    128 H128       32.2763   30.1050    0.1986 H         1 UNK         0.0771 
    129 H129       31.6477   31.6414    0.7981 H         1 UNK         0.0771 
    130 H130       33.9658   28.4471    2.5074 H         1 UNK         0.2980 
    131 H131       36.5300   28.3153    1.1284 H         1 UNK         0.0545 
    132 H132       35.6832   29.6145    4.2358 H         1 UNK         0.3459 
    133 H133       37.2927   29.4642    4.9001 H         1 UNK         0.3459 
    134 H134       35.2213   26.3201    1.0308 H         1 UNK         0.0616 
    135 H135       36.6455   25.9826    1.9586 H         1 UNK         0.0616 
    136 H136       32.7474   26.2291    1.9804 H         1 UNK         0.0634 
    137 H137       33.5150   24.6909    1.6497 H         1 UNK         0.0634 
@<TRIPOS>BOND
     1    1    2 1    
     2    1   72 1    
     3    1   73 1    
     4    1   74 1    
     5    2    3 2    
     6    2    4 am   BACKBONE|DICT|INTERRES
     7    4    5 1    
     8    4   75 1    
     9    5    6 1    
    10    5   35 1    
    11    5   76 1    
    12    6    7 1    
    13    6   77 1    
    14    6   78 1    
    15    7    8 1    
    16    8    9 1    
    17    8   79 1    
    18    8   80 1    
    19    9   10 ar   
    20    9   14 ar   
    21   10   11 ar   
    22   10   81 1    
    23   11   12 ar   
    24   11   71 1    
    25   12   13 ar   
    26   12   82 1    
    27   13   14 ar   
    28   13   15 1    
    29   14   83 1    
    30   15   16 1    
    31   15   84 1    
    32   15   85 1    
    33   16   17 1    
    34   17   18 1    
    35   17   86 1    
    36   17   87 1    
    37   18   19 1    
    38   18   37 1    
    39   18   88 1    
    40   19   20 am   BACKBONE|DICT|INTERRES
    41   19   89 1    
    42   20   21 2    
    43   20   22 1    
    44   22   23 1    
    45   22   24 1    
    46   22   90 1    
    47   23   91 1    
    48   23   92 1    
    49   23   93 1    
    50   24   25 am   BACKBONE|DICT|INTERRES
    51   24   94 1    
    52   25   26 2    
    53   25   27 1    
    54   27   28 1    
    55   27   29 1    
    56   27   95 1    
    57   28   96 1    
    58   28   97 1    
    59   28   98 1    
    60   29   30 am   BACKBONE|DICT|INTERRES
    61   29   99 1    
    62   30   31 2    
    63   30   32 1    
    64   32   33 1    
    65   32   34 1    
    66   32  100 1    
    67   33  101 1    
    68   33  102 1    
    69   33  103 1    
    70   34   35 am   BACKBONE|DICT|INTERRES
    71   34  104 1    
    72   35   36 2    
    73   37   38 2    
    74   37   39 am   BACKBONE|DICT|INTERRES
    75   39   40 1    
    76   39  105 1    
    77   40   41 1    
    78   40   42 1    
    79   40  106 1    
    80   41  107 1    
    81   41  108 1    
    82   41  109 1    
    83   42   43 2    
    84   42   44 am   BACKBONE|DICT|INTERRES
    85   44   45 1    
    86   44  110 1    
    87   45   46 1    
    88   45   47 1    
    89   45  111 1    
    90   46  112 1    
    91   46  113 1    
    92   46  114 1    
    93   47   48 2    
    94   47   49 am   BACKBONE|DICT|INTERRES
    95   49   50 1    
    96   49  115 1    
    97   50   51 1    
    98   50   52 1    
    99   50  116 1    
   100   51  117 1    
   101   51  118 1    
   102   51  119 1    
   103   52   53 2    
   104   52   54 am   BACKBONE|DICT|INTERRES
   105   54   55 1    
   106   54  120 1    
   107   55   56 1    
   108   55   57 1    
   109   55  121 1    
   110   56  122 1    
   111   56  123 1    
   112   56  124 1    
   113   57   58 2    
   114   57   59 am   BACKBONE|DICT|INTERRES
   115   59   60 1    
   116   59  125 1    
   117   60   61 1    
   118   60   62 1    
   119   60  126 1    
   120   61  127 1    
   121   61  128 1    
   122   61  129 1    
   123   62   63 2    
   124   62   64 am   BACKBONE|DICT|INTERRES
   125   64   65 1    
   126   64  130 1    
   127   65   66 1    
   128   65   69 1    
   129   65  131 1    
   130   66   67 am   BACKBONE|DICT|INTERRES
   131   66   68 2    
   132   67  132 1    
   133   67  133 1    
   134   69   70 1    
   135   69  134 1    
   136   69  135 1    
   137   70   71 1    
   138   71  136 1    
   139   71  137 1    
@<TRIPOS>SUBSTRUCTURE
     1 UNK         1 GROUP             0       ****    0 ROOT    
