@<TRIPOS>MOLECULE
3R136
137   139    1
SMALL
USER_CHARGES


@<TRIPOS>ATOM
      1 CA         25.4668   22.0919    4.7287 C.3       0 UNK        -0.1979 
      2 C          25.8830   22.6316    3.3684 C.2       0 UNK         0.4864 
      3 O          25.0251   22.8904    2.5244 O.2       0 UNK        -0.5359 
      4 N          27.1932   22.8063    3.1516 N.am      1 UNK        -0.4318 
      5 CA         27.7834   23.3219    1.9096 C.3       1 UNK         0.0824 
      6 C6         29.1936   22.7307    1.6555 C.3       12 UNK        -0.0944 
      7 S7         30.3748   22.9630    3.0271 S.3       12 UNK        -0.2672 
      8 C8         31.9041   22.3171    2.2755 C.3       12 UNK         0.0333 
      9 C9         32.6615   23.4081    1.5333 C.ar      12 UNK        -0.0807 
     10 C10        33.5407   24.2365    2.2350 C.ar      12 UNK        -0.0894 
     11 C11        34.2370   25.2575    1.5836 C.ar      12 UNK        -0.0804 
     12 C12        34.0309   25.4466    0.2109 C.ar      12 UNK        -0.0824 
     13 C13        33.1463   24.6357   -0.5101 C.ar      12 UNK        -0.0762 
     14 C14        32.4877   23.5939    0.1580 C.ar      12 UNK        -0.0782 
     15 C15        32.9640   24.9346   -2.0024 C.3       12 UNK         0.0230 
     16 S16        31.5724   24.1210   -2.8738 S.3       12 UNK        -0.2608 
     17 C17        30.0823   24.6466   -1.9605 C.3       12 UNK        -0.0989 
     18 CA         29.5359   26.0551   -2.3194 C.3       5 UNK         0.0716 
     19 N          28.1086   26.1486   -2.0209 N.am      5 UNK        -0.4135 
     20 C          27.1131   25.9200   -2.8831 C.2       4 UNK         0.5031 
     21 O          27.2789   25.6677   -4.0772 O.2       4 UNK        -0.5229 
     22 CA         25.6832   25.9533   -2.3123 C.3       4 UNK         0.0329 
     23 CB         25.2698   24.5520   -1.8334 C.3       4 UNK        -0.2001 
     24 N          25.5225   26.9000   -1.2064 N.am      4 UNK        -0.4303 
     25 C          25.5335   28.2337   -1.3255 C.2       3 UNK         0.5044 
     26 O          25.6278   28.8191   -2.4047 O.2       3 UNK        -0.5152 
     27 CA         25.4516   29.0628   -0.0309 C.3       3 UNK         0.0319 
     28 CB         23.9921   29.3676    0.3600 C.3       3 UNK        -0.2001 
     29 N          26.2239   28.4960    1.0836 N.am      3 UNK        -0.4354 
     30 C          25.9741   27.4067    1.8204 C.2       2 UNK         0.4964 
     31 O          24.9676   26.7063    1.6966 O.2       2 UNK        -0.5047 
     32 CA         27.0530   27.0111    2.8441 C.3       2 UNK         0.0288 
     33 CB         26.6569   27.4692    4.2562 C.3       2 UNK        -0.2113 
     34 N          27.2840   25.5642    2.8472 N.am      2 UNK        -0.4145 
     35 C          27.7554   24.8647    1.8038 C.2       1 UNK         0.5006 
     36 O          28.1496   25.3996    0.7647 O.2       1 UNK        -0.5103 
     37 C          30.2714   27.1631   -1.5482 C.2       5 UNK         0.5055 
     38 O          30.9281   28.0082   -2.1584 O.2       5 UNK        -0.5220 
     39 N          30.1553   27.1164   -0.2164 N.am      6 UNK        -0.4450 
     40 CA         30.8519   27.9776    0.7344 C.3       6 UNK         0.0367 
     41 CB         31.1605   27.1265    1.9788 C.3       6 UNK        -0.1929 
     42 C          29.9941   29.2002    1.0996 C.2       6 UNK         0.5070 
     43 O          28.8340   29.2884    0.6928 O.2       6 UNK        -0.5237 
     44 N          30.5564   30.1111    1.8993 N.am      7 UNK        -0.4739 
     45 CA         29.8235   31.2167    2.5206 C.3       7 UNK         0.0276 
     46 CB         30.8066   32.3737    2.7784 C.3       7 UNK        -0.1927 
     47 C          29.1572   30.7552    3.8304 C.2       7 UNK         0.5013 
     48 O          29.3541   29.6175    4.2648 O.2       7 UNK        -0.5193 
     49 N          28.4167   31.6657    4.4786 N.am      8 UNK        -0.4253 
     50 CA         27.8042   31.4517    5.7982 C.3       8 UNK         0.0242 
     51 CB         26.9101   32.6527    6.1461 C.3       8 UNK        -0.2000 
     52 C          28.8268   31.1947    6.9247 C.2       8 UNK         0.4948 
     53 O          28.5017   30.5015    7.8884 O.2       8 UNK        -0.5275 
     54 N          30.0476   31.7237    6.7625 N.am      9 UNK        -0.4246 
     55 CA         31.2087   31.4836    7.6243 C.3       9 UNK         0.0261 
     56 CB         31.9500   32.8175    7.8340 C.3       9 UNK        -0.1959 
     57 C          32.1408   30.3971    7.0455 C.2       9 UNK         0.5033 
     58 O          33.3371   30.4029    7.3487 O.2       9 UNK        -0.5390 
     59 N          31.5971   29.5023    6.2040 N.am      10 UNK        -0.4215 
     60 CA         32.2952   28.4685    5.4366 C.3       10 UNK         0.0240 
     61 CB         32.8750   27.3725    6.3608 C.3       10 UNK        -0.1982 
     62 C          33.3134   29.1151    4.4819 C.2       10 UNK         0.4970 
     63 O          32.8979   29.8247    3.5654 O.2       10 UNK        -0.4916 
     64 N          34.6052   28.8790    4.7177 N.am      11 UNK        -0.4279 
     65 CA         35.7232   29.5216    4.0131 C.3       11 UNK         0.1003 
     66 C          36.6555   30.2901    4.9950 C.2       11 UNK         0.5709 
     67 N          36.2204   30.6098    6.2107 N.am      11 UNK        -0.7358 
     68 O          37.7883   30.6199    4.6512 O.2       11 UNK        -0.4999 
     69 C69        36.4831   28.5192    3.1008 C.3       12 UNK        -0.0954 
     70 S70        35.4171   27.8204    1.7923 S.3       12 UNK        -0.2268 
     71 C71        35.2190   26.1087    2.3895 C.3       12 UNK         0.0203 
     72 H72        24.9281   21.1522    4.6099 H         1 UNK         0.0888 
     73 H73        24.8081   22.8015    5.2287 H         1 UNK         0.0888 
     74 H74        26.3248   21.9109    5.3760 H         1 UNK         0.0888 
     75 H75        27.8598   22.5742    3.8758 H         1 UNK         0.3017 
     76 H76        27.1582   22.9789    1.0821 H         1 UNK         0.0873 
     77 H77        29.6221   23.1346    0.7400 H         1 UNK         0.0745 
     78 H78        29.1010   21.6575    1.4811 H         1 UNK         0.0745 
     79 H79        32.5351   21.9072    3.0657 H         1 UNK         0.0705 
     80 H80        31.6741   21.4830    1.6108 H         1 UNK         0.0705 
     81 H81        33.6816   24.0832    3.2964 H         1 UNK         0.1334 
     82 H82        34.5629   26.2315   -0.3082 H         1 UNK         0.1417 
     83 H83        31.8256   22.9317   -0.3807 H         1 UNK         0.1562 
     84 H84        33.8833   24.6470   -2.5142 H         1 UNK         0.0748 
     85 H85        32.8716   26.0118   -2.1439 H         1 UNK         0.0748 
     86 H86        30.2387   24.5460   -0.8892 H         1 UNK         0.0940 
     87 H87        29.3245   23.8982   -2.1983 H         1 UNK         0.0940 
     88 H88        29.6891   26.2383   -3.3853 H         1 UNK         0.0703 
     89 H89        27.8732   26.3078   -1.0481 H         1 UNK         0.3081 
     90 H90        25.0106   26.2537   -3.1186 H         1 UNK         0.0719 
     91 H91        25.8942   24.2062   -1.0084 H         1 UNK         0.0809 
     92 H92        24.2329   24.5375   -1.4970 H         1 UNK         0.0809 
     93 H93        25.3585   23.8217   -2.6389 H         1 UNK         0.0809 
     94 H94        25.3930   26.5167   -0.2758 H         1 UNK         0.2990 
     95 H95        25.9333   30.0176   -0.2487 H         1 UNK         0.0690 
     96 H96        23.9423   29.9812    1.2595 H         1 UNK         0.0788 
     97 H97        23.4152   28.4601    0.5389 H         1 UNK         0.0788 
     98 H98        23.4868   29.9164   -0.4358 H         1 UNK         0.0788 
     99 H99        27.1508   28.9135    1.1754 H         1 UNK         0.2993 
    100 H100       27.9907   27.4996    2.5771 H         1 UNK         0.0949 
    101 H101       26.4905   28.5470    4.2811 H         1 UNK         0.0767 
    102 H102       25.7394   26.9873    4.5964 H         1 UNK         0.0767 
    103 H103       27.4443   27.2510    4.9782 H         1 UNK         0.0767 
    104 H104       26.9516   25.0517    3.6495 H         1 UNK         0.3013 
    105 H105       29.5249   26.4312    0.1941 H         1 UNK         0.3121 
    106 H106       31.7918   28.3191    0.2950 H         1 UNK         0.0774 
    107 H107       31.4094   26.0994    1.7145 H         1 UNK         0.0815 
    108 H108       30.3241   27.0880    2.6776 H         1 UNK         0.0815 
    109 H109       32.0215   27.5254    2.5088 H         1 UNK         0.0815 
    110 H110       31.4812   29.9324    2.2837 H         1 UNK         0.2987 
    111 H111       29.0414   31.5661    1.8427 H         1 UNK         0.0949 
    112 H112       31.5517   32.1145    3.5313 H         1 UNK         0.0806 
    113 H113       31.3386   32.6491    1.8675 H         1 UNK         0.0806 
    114 H114       30.2892   33.2685    3.1256 H         1 UNK         0.0806 
    115 H115       28.2864   32.5768    4.0620 H         1 UNK         0.3010 
    116 H116       27.1721   30.5638    5.7287 H         1 UNK         0.0829 
    117 H117       26.1225   32.7901    5.4049 H         1 UNK         0.0813 
    118 H118       26.4215   32.5083    7.1109 H         1 UNK         0.0813 
    119 H119       27.4820   33.5796    6.2066 H         1 UNK         0.0813 
    120 H120       30.2152   32.2764    5.9343 H         1 UNK         0.3038 
    121 H121       30.8772   31.1271    8.6016 H         1 UNK         0.0769 
    122 H122       32.3665   33.1987    6.9008 H         1 UNK         0.0811 
    123 H123       32.7762   32.7023    8.5369 H         1 UNK         0.0811 
    124 H124       31.2867   33.5799    8.2428 H         1 UNK         0.0811 
    125 H125       30.6227   29.6187    5.9480 H         1 UNK         0.3204 
    126 H126       31.5396   27.9969    4.8080 H         1 UNK         0.0748 
    127 H127       32.0847   26.9074    6.9503 H         1 UNK         0.0771 
    128 H128       33.3458   26.5780    5.7800 H         1 UNK         0.0771 
    129 H129       33.6165   27.7599    7.0602 H         1 UNK         0.0771 
    130 H130       34.8579   28.3136    5.5147 H         1 UNK         0.2980 
    131 H131       35.3353   30.3081    3.3634 H         1 UNK         0.0545 
    132 H132       36.8353   31.1109    6.8319 H         1 UNK         0.3459 
    133 H133       35.2690   30.4121    6.5008 H         1 UNK         0.3459 
    134 H134       37.3155   29.0152    2.5989 H         1 UNK         0.0616 
    135 H135       36.9226   27.7163    3.6950 H         1 UNK         0.0616 
    136 H136       36.1928   25.6177    2.3818 H         1 UNK         0.0634 
    137 H137       34.8963   26.1513    3.4310 H         1 UNK         0.0634 
@<TRIPOS>BOND
     1    1    2 1    
     2    1   72 1    
     3    1   73 1    
     4    1   74 1    
     5    2    3 2    
     6    2    4 am   BACKBONE|DICT|INTERRES
     7    4    5 1    
     8    4   75 1    
     9    5    6 1    
    10    5   35 1    
    11    5   76 1    
    12    6    7 1    
    13    6   77 1    
    14    6   78 1    
    15    7    8 1    
    16    8    9 1    
    17    8   79 1    
    18    8   80 1    
    19    9   10 ar   
    20    9   14 ar   
    21   10   11 ar   
    22   10   81 1    
    23   11   12 ar   
    24   11   71 1    
    25   12   13 ar   
    26   12   82 1    
    27   13   14 ar   
    28   13   15 1    
    29   14   83 1    
    30   15   16 1    
    31   15   84 1    
    32   15   85 1    
    33   16   17 1    
    34   17   18 1    
    35   17   86 1    
    36   17   87 1    
    37   18   19 1    
    38   18   37 1    
    39   18   88 1    
    40   19   20 am   BACKBONE|DICT|INTERRES
    41   19   89 1    
    42   20   21 2    
    43   20   22 1    
    44   22   23 1    
    45   22   24 1    
    46   22   90 1    
    47   23   91 1    
    48   23   92 1    
    49   23   93 1    
    50   24   25 am   BACKBONE|DICT|INTERRES
    51   24   94 1    
    52   25   26 2    
    53   25   27 1    
    54   27   28 1    
    55   27   29 1    
    56   27   95 1    
    57   28   96 1    
    58   28   97 1    
    59   28   98 1    
    60   29   30 am   BACKBONE|DICT|INTERRES
    61   29   99 1    
    62   30   31 2    
    63   30   32 1    
    64   32   33 1    
    65   32   34 1    
    66   32  100 1    
    67   33  101 1    
    68   33  102 1    
    69   33  103 1    
    70   34   35 am   BACKBONE|DICT|INTERRES
    71   34  104 1    
    72   35   36 2    
    73   37   38 2    
    74   37   39 am   BACKBONE|DICT|INTERRES
    75   39   40 1    
    76   39  105 1    
    77   40   41 1    
    78   40   42 1    
    79   40  106 1    
    80   41  107 1    
    81   41  108 1    
    82   41  109 1    
    83   42   43 2    
    84   42   44 am   BACKBONE|DICT|INTERRES
    85   44   45 1    
    86   44  110 1    
    87   45   46 1    
    88   45   47 1    
    89   45  111 1    
    90   46  112 1    
    91   46  113 1    
    92   46  114 1    
    93   47   48 2    
    94   47   49 am   BACKBONE|DICT|INTERRES
    95   49   50 1    
    96   49  115 1    
    97   50   51 1    
    98   50   52 1    
    99   50  116 1    
   100   51  117 1    
   101   51  118 1    
   102   51  119 1    
   103   52   53 2    
   104   52   54 am   BACKBONE|DICT|INTERRES
   105   54   55 1    
   106   54  120 1    
   107   55   56 1    
   108   55   57 1    
   109   55  121 1    
   110   56  122 1    
   111   56  123 1    
   112   56  124 1    
   113   57   58 2    
   114   57   59 am   BACKBONE|DICT|INTERRES
   115   59   60 1    
   116   59  125 1    
   117   60   61 1    
   118   60   62 1    
   119   60  126 1    
   120   61  127 1    
   121   61  128 1    
   122   61  129 1    
   123   62   63 2    
   124   62   64 am   BACKBONE|DICT|INTERRES
   125   64   65 1    
   126   64  130 1    
   127   65   66 1    
   128   65   69 1    
   129   65  131 1    
   130   66   67 am   BACKBONE|DICT|INTERRES
   131   66   68 2    
   132   67  132 1    
   133   67  133 1    
   134   69   70 1    
   135   69  134 1    
   136   69  135 1    
   137   70   71 1    
   138   71  136 1    
   139   71  137 1    
@<TRIPOS>SUBSTRUCTURE
     1 UNK         1 GROUP             0       ****    0 ROOT    
