@<TRIPOS>MOLECULE
3R136
137   139    1
SMALL
USER_CHARGES


@<TRIPOS>ATOM
      1 CA         30.5092   23.9102   -2.2977 C.3       0 UNK        -0.1979 
      2 C          29.0327   23.5325   -2.3462 C.2       0 UNK         0.4864 
      3 O          28.4121   23.6556   -3.4002 O.2       0 UNK        -0.5359 
      4 N          28.4259   23.0758   -1.2455 N.am      1 UNK        -0.4318 
      5 CA         28.9898   22.9093    0.0927 C.3       1 UNK         0.0824 
      6 C6         29.5385   21.4668    0.2876 C.3       12 UNK        -0.0944 
      7 S7         30.0584   20.9980    1.9775 S.3       12 UNK        -0.2672 
      8 C8         31.7746   21.6018    2.0549 C.3       12 UNK         0.0333 
      9 C9         31.8324   23.1074    2.2717 C.ar      12 UNK        -0.0807 
     10 C10        31.5009   23.6506    3.5163 C.ar      12 UNK        -0.0894 
     11 C11        31.5539   25.0317    3.7274 C.ar      12 UNK        -0.0804 
     12 C12        31.9326   25.8730    2.6767 C.ar      12 UNK        -0.0824 
     13 C13        32.2577   25.3429    1.4217 C.ar      12 UNK        -0.0762 
     14 C14        32.2251   23.9576    1.2350 C.ar      12 UNK        -0.0782 
     15 C15        32.6506   26.2428    0.2520 C.3       12 UNK         0.0230 
     16 S16        31.6561   27.7665    0.0960 S.3       12 UNK        -0.2608 
     17 C17        29.9315   27.1960    0.3118 C.3       12 UNK        -0.0989 
     18 CA         28.9599   27.6340   -0.8115 C.3       5 UNK         0.0716 
     19 N          27.6479   27.0087   -0.6299 N.am      5 UNK        -0.4135 
     20 C          26.7068   26.9320   -1.5831 C.2       4 UNK         0.5031 
     21 O          26.8888   27.3098   -2.7416 O.2       4 UNK        -0.5229 
     22 CA         25.3338   26.3359   -1.2113 C.3       4 UNK         0.0329 
     23 CB         25.1162   24.9821   -1.9064 C.3       4 UNK        -0.2001 
     24 N          25.1367   26.1753    0.2318 N.am      4 UNK        -0.4303 
     25 C          24.7507   27.1632    1.0538 C.2       3 UNK         0.5044 
     26 O          24.4512   28.2922    0.6644 O.2       3 UNK        -0.5152 
     27 CA         24.6877   26.8595    2.5660 C.3       3 UNK         0.0319 
     28 CB         23.2316   26.6421    3.0085 C.3       3 UNK        -0.2001 
     29 N          25.4957   25.7166    3.0084 N.am      3 UNK        -0.4354 
     30 C          26.8225   25.6068    2.8621 C.2       2 UNK         0.4964 
     31 O          27.5135   26.4553    2.3003 O.2       2 UNK        -0.5047 
     32 CA         27.5047   24.3229    3.3651 C.3       2 UNK         0.0288 
     33 CB         26.5439   23.2709    3.9657 C.3       2 UNK        -0.2113 
     34 N          28.3237   23.7385    2.2990 N.am      2 UNK        -0.4145 
     35 C          27.8979   23.3283    1.0947 C.2       1 UNK         0.5006 
     36 O          26.7112   23.3123    0.7497 O.2       1 UNK        -0.5103 
     37 C          28.8093   29.1690   -0.8687 C.2       5 UNK         0.5055 
     38 O          28.0175   29.7392   -0.1153 O.2       5 UNK        -0.5220 
     39 N          29.6169   29.8183   -1.7177 N.am      6 UNK        -0.4450 
     40 CA         29.7234   31.2793   -1.8012 C.3       6 UNK         0.0367 
     41 CB         30.4631   31.6575   -3.0946 C.3       6 UNK        -0.1929 
     42 C          30.4235   31.9085   -0.5799 C.2       6 UNK         0.5070 
     43 O          30.2231   33.0938   -0.3155 O.2       6 UNK        -0.5237 
     44 N          31.2232   31.1097    0.1380 N.am      7 UNK        -0.4739 
     45 CA         31.9760   31.4909    1.3328 C.3       7 UNK         0.0276 
     46 CB         33.4780   31.2981    1.0518 C.3       7 UNK        -0.1927 
     47 C          31.5088   30.6816    2.5555 C.2       7 UNK         0.5013 
     48 O          32.3234   30.3751    3.4281 O.2       7 UNK        -0.5193 
     49 N          30.2081   30.3522    2.6120 N.am      8 UNK        -0.4253 
     50 CA         29.5669   29.5402    3.6572 C.3       8 UNK         0.0242 
     51 CB         28.0579   29.4543    3.3779 C.3       8 UNK        -0.2000 
     52 C          29.7942   30.0389    5.0954 C.2       8 UNK         0.4948 
     53 O          29.9143   29.2206    6.0067 O.2       8 UNK        -0.5275 
     54 N          29.8610   31.3667    5.2669 N.am      9 UNK        -0.4246 
     55 CA         30.1342   32.0287    6.5442 C.3       9 UNK         0.0261 
     56 CB         29.7451   33.5122    6.4355 C.3       9 UNK        -0.1959 
     57 C          31.5956   31.8903    7.0098 C.2       9 UNK         0.5033 
     58 O          31.8446   31.9732    8.2136 O.2       9 UNK        -0.5390 
     59 N          32.5298   31.6986    6.0678 N.am      10 UNK        -0.4215 
     60 CA         33.9504   31.4870    6.3450 C.3       10 UNK         0.0240 
     61 CB         34.8003   32.1104    5.2248 C.3       10 UNK        -0.1982 
     62 C          34.2531   29.9910    6.4978 C.2       10 UNK         0.4970 
     63 O          34.9072   29.6073    7.4679 O.2       10 UNK        -0.4916 
     64 N          33.7597   29.1817    5.5485 N.am      11 UNK        -0.4279 
     65 CA         33.9061   27.7182    5.5074 C.3       11 UNK         0.1003 
     66 C          35.3806   27.2238    5.3611 C.2       11 UNK         0.5709 
     67 N          36.2627   28.0025    4.7446 N.am      11 UNK        -0.7358 
     68 O          35.7376   26.1294    5.7902 O.2       11 UNK        -0.4999 
     69 C69        33.0952   27.0379    6.6491 C.3       12 UNK        -0.0954 
     70 S70        32.5581   25.3354    6.2762 S.3       12 UNK        -0.2268 
     71 C71        31.2005   25.6027    5.0931 C.3       12 UNK         0.0203 
     72 H72        31.1034   23.1407   -1.8073 H         1 UNK         0.0888 
     73 H73        30.9035   24.0361   -3.3059 H         1 UNK         0.0888 
     74 H74        30.6381   24.8532   -1.7692 H         1 UNK         0.0888 
     75 H75        27.4323   22.8850   -1.2747 H         1 UNK         0.3017 
     76 H76        29.8008   23.6222    0.2228 H         1 UNK         0.0873 
     77 H77        28.7727   20.7480   -0.0099 H         1 UNK         0.0745 
     78 H78        30.3746   21.2927   -0.3907 H         1 UNK         0.0745 
     79 H79        32.3108   21.3097    1.1506 H         1 UNK         0.0705 
     80 H80        32.2827   21.1047    2.8825 H         1 UNK         0.0705 
     81 H81        31.2086   22.9953    4.3262 H         1 UNK         0.1334 
     82 H82        31.9649   26.9428    2.8293 H         1 UNK         0.1417 
     83 H83        32.4933   23.5385    0.2747 H         1 UNK         0.1562 
     84 H84        32.5861   25.6981   -0.6904 H         1 UNK         0.0748 
     85 H85        33.6978   26.5246    0.3680 H         1 UNK         0.0748 
     86 H86        29.5869   27.5610    1.2800 H         1 UNK         0.0940 
     87 H87        29.9177   26.1092    0.3869 H         1 UNK         0.0940 
     88 H88        29.3636   27.2863   -1.7651 H         1 UNK         0.0703 
     89 H89        27.4083   26.7551    0.3233 H         1 UNK         0.3081 
     90 H90        24.5769   27.0247   -1.5929 H         1 UNK         0.0719 
     91 H91        25.8417   24.2387   -1.5816 H         1 UNK         0.0809 
     92 H92        24.1196   24.5886   -1.7063 H         1 UNK         0.0809 
     93 H93        25.2147   25.0777   -2.9887 H         1 UNK         0.0809 
     94 H94        25.3753   25.2744    0.6279 H         1 UNK         0.2990 
     95 H95        25.0718   27.7430    3.0805 H         1 UNK         0.0690 
     96 H96        22.7999   25.7515    2.5500 H         1 UNK         0.0788 
     97 H97        22.6058   27.4899    2.7256 H         1 UNK         0.0788 
     98 H98        23.1561   26.5350    4.0908 H         1 UNK         0.0788 
     99 H99        25.0007   24.9561    3.4516 H         1 UNK         0.2993 
    100 H100       28.1927   24.6352    4.1516 H         1 UNK         0.0949 
    101 H101       25.7984   22.9290    3.2468 H         1 UNK         0.0767 
    102 H102       27.0952   22.3934    4.3045 H         1 UNK         0.0767 
    103 H103       26.0158   23.6666    4.8342 H         1 UNK         0.0767 
    104 H104       29.3185   23.7180    2.4819 H         1 UNK         0.3013 
    105 H105       30.2485   29.2834   -2.2973 H         1 UNK         0.3121 
    106 H106       28.7141   31.6942   -1.8499 H         1 UNK         0.0774 
    107 H107       30.5315   32.7411   -3.2017 H         1 UNK         0.0815 
    108 H108       31.4807   31.2648   -3.1086 H         1 UNK         0.0815 
    109 H109       29.9432   31.2797   -3.9752 H         1 UNK         0.0815 
    110 H110       31.3058   30.1395   -0.1398 H         1 UNK         0.2987 
    111 H111       31.8070   32.5428    1.5723 H         1 UNK         0.0949 
    112 H112       33.7249   30.2483    0.8873 H         1 UNK         0.0806 
    113 H113       33.7910   31.8581    0.1705 H         1 UNK         0.0806 
    114 H114       34.0842   31.6505    1.8865 H         1 UNK         0.0806 
    115 H115       29.6174   30.6389    1.8432 H         1 UNK         0.3010 
    116 H116       29.9880   28.5355    3.5886 H         1 UNK         0.0829 
    117 H117       27.5623   28.8078    4.1037 H         1 UNK         0.0813 
    118 H118       27.5785   30.4325    3.4280 H         1 UNK         0.0813 
    119 H119       27.8560   29.0373    2.3929 H         1 UNK         0.0813 
    120 H120       29.7321   31.9605    4.4605 H         1 UNK         0.3038 
    121 H121       29.5038   31.5665    7.3072 H         1 UNK         0.0769 
    122 H122       29.9083   34.0282    7.3829 H         1 UNK         0.0811 
    123 H123       28.6909   33.6295    6.1835 H         1 UNK         0.0811 
    124 H124       30.3331   34.0310    5.6773 H         1 UNK         0.0811 
    125 H125       32.2331   31.5600    5.1089 H         1 UNK         0.3204 
    126 H126       34.2202   31.9831    7.2800 H         1 UNK         0.0748 
    127 H127       35.8645   31.9818    5.4272 H         1 UNK         0.0771 
    128 H128       34.5965   31.6572    4.2548 H         1 UNK         0.0771 
    129 H129       34.6147   33.1811    5.1382 H         1 UNK         0.0771 
    130 H130       33.2499   29.5944    4.7695 H         1 UNK         0.2980 
    131 H131       33.4382   27.4367    4.5662 H         1 UNK         0.0545 
    132 H132       37.2143   27.6862    4.6456 H         1 UNK         0.3459 
    133 H133       35.9872   28.9001    4.3806 H         1 UNK         0.3459 
    134 H134       33.6733   27.0268    7.5745 H         1 UNK         0.0616 
    135 H135       32.1966   27.6162    6.8719 H         1 UNK         0.0616 
    136 H136       30.9596   26.6641    5.0191 H         1 UNK         0.0634 
    137 H137       30.3032   25.1132    5.4734 H         1 UNK         0.0634 
@<TRIPOS>BOND
     1    1    2 1    
     2    1   72 1    
     3    1   73 1    
     4    1   74 1    
     5    2    3 2    
     6    2    4 am   BACKBONE|DICT|INTERRES
     7    4    5 1    
     8    4   75 1    
     9    5    6 1    
    10    5   35 1    
    11    5   76 1    
    12    6    7 1    
    13    6   77 1    
    14    6   78 1    
    15    7    8 1    
    16    8    9 1    
    17    8   79 1    
    18    8   80 1    
    19    9   10 ar   
    20    9   14 ar   
    21   10   11 ar   
    22   10   81 1    
    23   11   12 ar   
    24   11   71 1    
    25   12   13 ar   
    26   12   82 1    
    27   13   14 ar   
    28   13   15 1    
    29   14   83 1    
    30   15   16 1    
    31   15   84 1    
    32   15   85 1    
    33   16   17 1    
    34   17   18 1    
    35   17   86 1    
    36   17   87 1    
    37   18   19 1    
    38   18   37 1    
    39   18   88 1    
    40   19   20 am   BACKBONE|DICT|INTERRES
    41   19   89 1    
    42   20   21 2    
    43   20   22 1    
    44   22   23 1    
    45   22   24 1    
    46   22   90 1    
    47   23   91 1    
    48   23   92 1    
    49   23   93 1    
    50   24   25 am   BACKBONE|DICT|INTERRES
    51   24   94 1    
    52   25   26 2    
    53   25   27 1    
    54   27   28 1    
    55   27   29 1    
    56   27   95 1    
    57   28   96 1    
    58   28   97 1    
    59   28   98 1    
    60   29   30 am   BACKBONE|DICT|INTERRES
    61   29   99 1    
    62   30   31 2    
    63   30   32 1    
    64   32   33 1    
    65   32   34 1    
    66   32  100 1    
    67   33  101 1    
    68   33  102 1    
    69   33  103 1    
    70   34   35 am   BACKBONE|DICT|INTERRES
    71   34  104 1    
    72   35   36 2    
    73   37   38 2    
    74   37   39 am   BACKBONE|DICT|INTERRES
    75   39   40 1    
    76   39  105 1    
    77   40   41 1    
    78   40   42 1    
    79   40  106 1    
    80   41  107 1    
    81   41  108 1    
    82   41  109 1    
    83   42   43 2    
    84   42   44 am   BACKBONE|DICT|INTERRES
    85   44   45 1    
    86   44  110 1    
    87   45   46 1    
    88   45   47 1    
    89   45  111 1    
    90   46  112 1    
    91   46  113 1    
    92   46  114 1    
    93   47   48 2    
    94   47   49 am   BACKBONE|DICT|INTERRES
    95   49   50 1    
    96   49  115 1    
    97   50   51 1    
    98   50   52 1    
    99   50  116 1    
   100   51  117 1    
   101   51  118 1    
   102   51  119 1    
   103   52   53 2    
   104   52   54 am   BACKBONE|DICT|INTERRES
   105   54   55 1    
   106   54  120 1    
   107   55   56 1    
   108   55   57 1    
   109   55  121 1    
   110   56  122 1    
   111   56  123 1    
   112   56  124 1    
   113   57   58 2    
   114   57   59 am   BACKBONE|DICT|INTERRES
   115   59   60 1    
   116   59  125 1    
   117   60   61 1    
   118   60   62 1    
   119   60  126 1    
   120   61  127 1    
   121   61  128 1    
   122   61  129 1    
   123   62   63 2    
   124   62   64 am   BACKBONE|DICT|INTERRES
   125   64   65 1    
   126   64  130 1    
   127   65   66 1    
   128   65   69 1    
   129   65  131 1    
   130   66   67 am   BACKBONE|DICT|INTERRES
   131   66   68 2    
   132   67  132 1    
   133   67  133 1    
   134   69   70 1    
   135   69  134 1    
   136   69  135 1    
   137   70   71 1    
   138   71  136 1    
   139   71  137 1    
@<TRIPOS>SUBSTRUCTURE
     1 UNK         1 GROUP             0       ****    0 ROOT    
