@<TRIPOS>MOLECULE
3R136
137   139    1
SMALL
USER_CHARGES


@<TRIPOS>ATOM
      1 CA         27.2882   22.9030   -3.5072 C.3       0 UNK        -0.1979 
      2 C          28.0901   23.6346   -2.4424 C.2       0 UNK         0.4864 
      3 O          27.8748   24.8273   -2.2245 O.2       0 UNK        -0.5359 
      4 N          29.0052   22.9323   -1.7605 N.am      1 UNK        -0.4318 
      5 CA         29.8605   23.4900   -0.7059 C.3       1 UNK         0.0824 
      6 C6         31.0095   22.5261   -0.3184 C.3       12 UNK        -0.0944 
      7 S7         30.4423   20.9460    0.4119 S.3       12 UNK        -0.2672 
      8 C8         31.8140   20.5144    1.5412 C.3       12 UNK         0.0333 
      9 C9         32.1899   21.6131    2.5345 C.ar      12 UNK        -0.0807 
     10 C10        33.5403   21.8646    2.8019 C.ar      12 UNK        -0.0894 
     11 C11        33.9169   22.8805    3.6861 C.ar      12 UNK        -0.0804 
     12 C12        32.9290   23.6424    4.3133 C.ar      12 UNK        -0.0824 
     13 C13        31.5779   23.4246    4.0327 C.ar      12 UNK        -0.0762 
     14 C14        31.2118   22.3911    3.1661 C.ar      12 UNK        -0.0782 
     15 C15        30.5256   24.3570    4.6095 C.3       12 UNK         0.0230 
     16 S16        30.7490   26.0258    3.9221 S.3       12 UNK        -0.2608 
     17 C17        29.1393   26.7985    4.2523 C.3       12 UNK        -0.0989 
     18 CA         28.9503   28.0749    3.3967 C.3       5 UNK         0.0716 
     19 N          28.8791   27.7863    1.9552 N.am      5 UNK        -0.4135 
     20 C          28.9185   28.7107    0.9824 C.2       4 UNK         0.5031 
     21 O          29.0578   29.9148    1.1826 O.2       4 UNK        -0.5229 
     22 CA         28.6913   28.2311   -0.4624 C.3       4 UNK         0.0329 
     23 CB         29.9784   27.6511   -1.0701 C.3       4 UNK        -0.2001 
     24 N          27.5881   27.2717   -0.5691 N.am      4 UNK        -0.4303 
     25 C          26.3170   27.5531   -0.2428 C.2       3 UNK         0.5044 
     26 O          25.9343   28.6696    0.1035 O.2       3 UNK        -0.5152 
     27 CA         25.3165   26.3870   -0.2308 C.3       3 UNK         0.0319 
     28 CB         24.7271   26.1424   -1.6288 C.3       3 UNK        -0.2001 
     29 N          25.9193   25.1585    0.2897 N.am      3 UNK        -0.4354 
     30 C          26.2685   24.9795    1.5731 C.2       2 UNK         0.4964 
     31 O          26.0504   25.8027    2.4619 O.2       2 UNK        -0.5047 
     32 CA         27.0287   23.6861    1.9154 C.3       2 UNK         0.0288 
     33 CB         26.0502   22.5345    2.1927 C.3       2 UNK        -0.2113 
     34 N          27.9738   23.2857    0.8698 N.am      2 UNK        -0.4145 
     35 C          29.0547   23.9964    0.5127 C.2       1 UNK         0.5006 
     36 O          29.3800   25.0471    1.0626 O.2       1 UNK        -0.5103 
     37 C          27.7493   28.8893    3.9221 C.2       5 UNK         0.5055 
     38 O          27.9038   29.6143    4.9063 O.2       5 UNK        -0.5220 
     39 N          26.5754   28.7576    3.2893 N.am      6 UNK        -0.4450 
     40 CA         25.4017   29.5793    3.5883 C.3       6 UNK         0.0367 
     41 CB         24.1305   28.8776    3.0834 C.3       6 UNK        -0.1929 
     42 C          25.5299   30.9912    2.9902 C.2       6 UNK         0.5070 
     43 O          25.1296   31.9602    3.6359 O.2       6 UNK        -0.5237 
     44 N          26.0736   31.0817    1.7693 N.am      7 UNK        -0.4739 
     45 CA         26.2452   32.3267    1.0210 C.3       7 UNK         0.0276 
     46 CB         26.4737   31.9969   -0.4631 C.3       7 UNK        -0.1927 
     47 C          27.3773   33.2235    1.5497 C.2       7 UNK         0.5013 
     48 O          27.2059   34.4437    1.5695 O.2       7 UNK        -0.5193 
     49 N          28.5130   32.6292    1.9363 N.am      8 UNK        -0.4253 
     50 CA         29.7284   33.3398    2.3354 C.3       8 UNK         0.0242 
     51 CB         30.5592   33.6592    1.0766 C.3       8 UNK        -0.2000 
     52 C          30.5425   32.5078    3.3344 C.2       8 UNK         0.4948 
     53 O          30.2475   31.3337    3.5590 O.2       8 UNK        -0.5275 
     54 N          31.5874   33.1201    3.9049 N.am      9 UNK        -0.4246 
     55 CA         32.5273   32.4890    4.8364 C.3       9 UNK         0.0261 
     56 CB         33.2287   33.5888    5.6565 C.3       9 UNK        -0.1959 
     57 C          33.5254   31.5578    4.1152 C.2       9 UNK         0.5033 
     58 O          34.7309   31.8163    4.1283 O.2       9 UNK        -0.5390 
     59 N          33.0037   30.5023    3.4788 N.am      10 UNK        -0.4215 
     60 CA         33.7787   29.4342    2.8445 C.3       10 UNK         0.0240 
     61 CB         32.8569   28.6280    1.9147 C.3       10 UNK        -0.1982 
     62 C          34.4411   28.5263    3.8979 C.2       10 UNK         0.4970 
     63 O          33.8554   28.2995    4.9600 O.2       10 UNK        -0.4916 
     64 N          35.6421   28.0254    3.5757 N.am      11 UNK        -0.4279 
     65 CA         36.5199   27.2412    4.4650 C.3       11 UNK         0.1003 
     66 C          36.9488   28.0355    5.7406 C.2       11 UNK         0.5709 
     67 N          37.2389   27.3782    6.8566 N.am      11 UNK        -0.7358 
     68 O          37.0864   29.2572    5.7098 O.2       11 UNK        -0.4999 
     69 C69        35.9762   25.8072    4.7458 C.3       12 UNK        -0.0954 
     70 S70        35.8849   24.7822    3.2399 S.3       12 UNK        -0.2268 
     71 C71        35.3883   23.1736    3.9421 C.3       12 UNK         0.0203 
     72 H72        26.2240   22.9601   -3.2803 H         1 UNK         0.0888 
     73 H73        27.4541   23.3632   -4.4808 H         1 UNK         0.0888 
     74 H74        27.5658   21.8514   -3.5762 H         1 UNK         0.0888 
     75 H75        29.1441   21.9523   -1.9648 H         1 UNK         0.3017 
     76 H76        30.3322   24.3761   -1.1367 H         1 UNK         0.0873 
     77 H77        31.6928   23.0361    0.3617 H         1 UNK         0.0745 
     78 H78        31.6062   22.2918   -1.2013 H         1 UNK         0.0745 
     79 H79        32.6772   20.2432    0.9312 H         1 UNK         0.0705 
     80 H80        31.5381   19.6191    2.0996 H         1 UNK         0.0705 
     81 H81        34.3028   21.2765    2.3093 H         1 UNK         0.1334 
     82 H82        33.2096   24.4459    4.9792 H         1 UNK         0.1417 
     83 H83        30.1664   22.2198    2.9495 H         1 UNK         0.1562 
     84 H84        30.6103   24.3922    5.6965 H         1 UNK         0.0748 
     85 H85        29.5232   23.9941    4.3797 H         1 UNK         0.0748 
     86 H86        29.0997   27.0289    5.3191 H         1 UNK         0.0940 
     87 H87        28.3380   26.0839    4.0566 H         1 UNK         0.0940 
     88 H88        29.8278   28.7069    3.5460 H         1 UNK         0.0703 
     89 H89        28.8528   26.8045    1.6913 H         1 UNK         0.3081 
     90 H90        28.4114   29.1032   -1.0571 H         1 UNK         0.0719 
     91 H91        29.8139   27.2958   -2.0876 H         1 UNK         0.0809 
     92 H92        30.7587   28.4119   -1.1129 H         1 UNK         0.0809 
     93 H93        30.3735   26.8227   -0.4844 H         1 UNK         0.0809 
     94 H94        27.8088   26.3400   -0.9079 H         1 UNK         0.2990 
     95 H95        24.4946   26.6645    0.4330 H         1 UNK         0.0690 
     96 H96        24.2261   27.0383   -1.9982 H         1 UNK         0.0788 
     97 H97        23.9875   25.3418   -1.6132 H         1 UNK         0.0788 
     98 H98        25.4932   25.8781   -2.3574 H         1 UNK         0.0788 
     99 H99        26.1762   24.4557   -0.3880 H         1 UNK         0.2993 
    100 H100       27.6003   23.8761    2.8259 H         1 UNK         0.0949 
    101 H101       25.4637   22.2786    1.3093 H         1 UNK         0.0767 
    102 H102       26.5769   21.6371    2.5184 H         1 UNK         0.0767 
    103 H103       25.3485   22.8020    2.9842 H         1 UNK         0.0767 
    104 H104       27.7799   22.4283    0.3728 H         1 UNK         0.3013 
    105 H105       26.4982   28.0962    2.5272 H         1 UNK         0.3121 
    106 H106       25.3147   29.6819    4.6723 H         1 UNK         0.0774 
    107 H107       24.1204   28.7792    1.9983 H         1 UNK         0.0815 
    108 H108       23.2402   29.4413    3.3650 H         1 UNK         0.0815 
    109 H109       24.0322   27.8793    3.5104 H         1 UNK         0.0815 
    110 H110       26.3243   30.2240    1.2865 H         1 UNK         0.2987 
    111 H111       25.3156   32.8950    1.0987 H         1 UNK         0.0949 
    112 H112       27.3811   31.4097   -0.6093 H         1 UNK         0.0806 
    113 H113       25.6394   31.4298   -0.8765 H         1 UNK         0.0806 
    114 H114       26.5739   32.9072   -1.0557 H         1 UNK         0.0806 
    115 H115       28.5985   31.6134    1.8970 H         1 UNK         0.3010 
    116 H116       29.4555   34.2707    2.8372 H         1 UNK         0.0829 
    117 H117       29.9955   34.2734    0.3740 H         1 UNK         0.0813 
    118 H118       31.4678   34.2094    1.3226 H         1 UNK         0.0813 
    119 H119       30.8583   32.7479    0.5565 H         1 UNK         0.0813 
    120 H120       31.7887   34.0756    3.6471 H         1 UNK         0.3038 
    121 H121       31.9614   31.8695    5.5360 H         1 UNK         0.0769 
    122 H122       33.8077   34.2608    5.0217 H         1 UNK         0.0811 
    123 H123       33.9162   33.1543    6.3836 H         1 UNK         0.0811 
    124 H124       32.5091   34.1889    6.2135 H         1 UNK         0.0811 
    125 H125       31.9930   30.3979    3.5034 H         1 UNK         0.3204 
    126 H126       34.5611   29.8963    2.2385 H         1 UNK         0.0748 
    127 H127       33.3982   27.8139    1.4308 H         1 UNK         0.0771 
    128 H128       32.0248   28.1857    2.4608 H         1 UNK         0.0771 
    129 H129       32.4387   29.2558    1.1275 H         1 UNK         0.0771 
    130 H130       36.0461   28.2742    2.6850 H         1 UNK         0.2980 
    131 H131       37.4517   27.1245    3.9106 H         1 UNK         0.0545 
    132 H132       37.5382   27.8994    7.6658 H         1 UNK         0.3459 
    133 H133       37.1581   26.3755    6.9078 H         1 UNK         0.3459 
    134 H134       36.6314   25.2747    5.4359 H         1 UNK         0.0616 
    135 H135       34.9961   25.8515    5.2206 H         1 UNK         0.0616 
    136 H136       35.5858   23.1440    5.0144 H         1 UNK         0.0634 
    137 H137       36.0143   22.3984    3.4978 H         1 UNK         0.0634 
@<TRIPOS>BOND
     1    1    2 1    
     2    1   72 1    
     3    1   73 1    
     4    1   74 1    
     5    2    3 2    
     6    2    4 am   BACKBONE|DICT|INTERRES
     7    4    5 1    
     8    4   75 1    
     9    5    6 1    
    10    5   35 1    
    11    5   76 1    
    12    6    7 1    
    13    6   77 1    
    14    6   78 1    
    15    7    8 1    
    16    8    9 1    
    17    8   79 1    
    18    8   80 1    
    19    9   10 ar   
    20    9   14 ar   
    21   10   11 ar   
    22   10   81 1    
    23   11   12 ar   
    24   11   71 1    
    25   12   13 ar   
    26   12   82 1    
    27   13   14 ar   
    28   13   15 1    
    29   14   83 1    
    30   15   16 1    
    31   15   84 1    
    32   15   85 1    
    33   16   17 1    
    34   17   18 1    
    35   17   86 1    
    36   17   87 1    
    37   18   19 1    
    38   18   37 1    
    39   18   88 1    
    40   19   20 am   BACKBONE|DICT|INTERRES
    41   19   89 1    
    42   20   21 2    
    43   20   22 1    
    44   22   23 1    
    45   22   24 1    
    46   22   90 1    
    47   23   91 1    
    48   23   92 1    
    49   23   93 1    
    50   24   25 am   BACKBONE|DICT|INTERRES
    51   24   94 1    
    52   25   26 2    
    53   25   27 1    
    54   27   28 1    
    55   27   29 1    
    56   27   95 1    
    57   28   96 1    
    58   28   97 1    
    59   28   98 1    
    60   29   30 am   BACKBONE|DICT|INTERRES
    61   29   99 1    
    62   30   31 2    
    63   30   32 1    
    64   32   33 1    
    65   32   34 1    
    66   32  100 1    
    67   33  101 1    
    68   33  102 1    
    69   33  103 1    
    70   34   35 am   BACKBONE|DICT|INTERRES
    71   34  104 1    
    72   35   36 2    
    73   37   38 2    
    74   37   39 am   BACKBONE|DICT|INTERRES
    75   39   40 1    
    76   39  105 1    
    77   40   41 1    
    78   40   42 1    
    79   40  106 1    
    80   41  107 1    
    81   41  108 1    
    82   41  109 1    
    83   42   43 2    
    84   42   44 am   BACKBONE|DICT|INTERRES
    85   44   45 1    
    86   44  110 1    
    87   45   46 1    
    88   45   47 1    
    89   45  111 1    
    90   46  112 1    
    91   46  113 1    
    92   46  114 1    
    93   47   48 2    
    94   47   49 am   BACKBONE|DICT|INTERRES
    95   49   50 1    
    96   49  115 1    
    97   50   51 1    
    98   50   52 1    
    99   50  116 1    
   100   51  117 1    
   101   51  118 1    
   102   51  119 1    
   103   52   53 2    
   104   52   54 am   BACKBONE|DICT|INTERRES
   105   54   55 1    
   106   54  120 1    
   107   55   56 1    
   108   55   57 1    
   109   55  121 1    
   110   56  122 1    
   111   56  123 1    
   112   56  124 1    
   113   57   58 2    
   114   57   59 am   BACKBONE|DICT|INTERRES
   115   59   60 1    
   116   59  125 1    
   117   60   61 1    
   118   60   62 1    
   119   60  126 1    
   120   61  127 1    
   121   61  128 1    
   122   61  129 1    
   123   62   63 2    
   124   62   64 am   BACKBONE|DICT|INTERRES
   125   64   65 1    
   126   64  130 1    
   127   65   66 1    
   128   65   69 1    
   129   65  131 1    
   130   66   67 am   BACKBONE|DICT|INTERRES
   131   66   68 2    
   132   67  132 1    
   133   67  133 1    
   134   69   70 1    
   135   69  134 1    
   136   69  135 1    
   137   70   71 1    
   138   71  136 1    
   139   71  137 1    
@<TRIPOS>SUBSTRUCTURE
     1 UNK         1 GROUP             0       ****    0 ROOT    
