@<TRIPOS>MOLECULE
3R136
137   139    1
SMALL
USER_CHARGES


@<TRIPOS>ATOM
      1 CA         24.7840   22.8530   -1.0893 C.3       0 UNK        -0.1979 
      2 C          26.1246   22.6312   -0.4059 C.2       0 UNK         0.4864 
      3 O          26.1605   22.3918    0.8022 O.2       0 UNK        -0.5359 
      4 N          27.2235   22.7289   -1.1692 N.am      1 UNK        -0.4318 
      5 CA         28.6181   22.5837   -0.7315 C.3       1 UNK         0.0824 
      6 C6         29.0030   21.1062   -0.4073 C.3       12 UNK        -0.0944 
      7 S7         30.6686   20.6600   -1.0077 S.3       12 UNK        -0.2672 
      8 C8         31.7154   20.7769    0.4898 C.3       12 UNK         0.0333 
      9 C9         32.1896   22.1844    0.8637 C.ar      12 UNK        -0.0807 
     10 C10        32.6441   22.4166    2.1667 C.ar      12 UNK        -0.0894 
     11 C11        33.0900   23.6842    2.5520 C.ar      12 UNK        -0.0804 
     12 C12        33.0744   24.7298    1.6271 C.ar      12 UNK        -0.0824 
     13 C13        32.5874   24.5315    0.3298 C.ar      12 UNK        -0.0762 
     14 C14        32.1921   23.2463   -0.0515 C.ar      12 UNK        -0.0782 
     15 C15        32.4332   25.6658   -0.6877 C.3       12 UNK         0.0230 
     16 S16        32.5858   27.3674   -0.0369 S.3       12 UNK        -0.2608 
     17 C17        31.2528   27.4580    1.2092 C.3       12 UNK        -0.0989 
     18 CA         30.1047   28.4102    0.7795 C.3       5 UNK         0.0716 
     19 N          28.9396   27.6785    0.2670 N.am      5 UNK        -0.4135 
     20 C          27.8571   28.2454   -0.2881 C.2       4 UNK         0.5031 
     21 O          27.7395   29.4545   -0.4852 O.2       4 UNK        -0.5229 
     22 CA         26.6862   27.3125   -0.6333 C.3       4 UNK         0.0329 
     23 CB         26.9373   26.5534   -1.9469 C.3       4 UNK        -0.2001 
     24 N          26.4320   26.3697    0.4570 N.am      4 UNK        -0.4303 
     25 C          25.7748   26.6871    1.5827 C.2       3 UNK         0.5044 
     26 O          25.2241   27.7720    1.7692 O.2       3 UNK        -0.5152 
     27 CA         25.7348   25.6309    2.7019 C.3       3 UNK         0.0319 
     28 CB         24.4263   24.8273    2.6445 C.3       3 UNK        -0.2001 
     29 N          26.8763   24.7129    2.6733 N.am      3 UNK        -0.4354 
     30 C          28.1326   25.0661    2.9870 C.2       2 UNK         0.4964 
     31 O          28.4571   26.1998    3.3345 O.2       2 UNK        -0.5047 
     32 CA         29.2222   23.9956    2.8196 C.3       2 UNK         0.0288 
     33 CB         29.2986   23.1015    4.0669 C.3       2 UNK        -0.2113 
     34 N          29.0267   23.1595    1.6360 N.am      2 UNK        -0.4145 
     35 C          28.9380   23.6096    0.3768 C.2       1 UNK         0.5006 
     36 O          29.0410   24.8004    0.0738 O.2       1 UNK        -0.5103 
     37 C          29.7307   29.3878    1.9141 C.2       5 UNK         0.5055 
     38 O          30.2305   30.5111    1.9214 O.2       5 UNK        -0.5220 
     39 N          28.8283   28.9766    2.8191 N.am      6 UNK        -0.4450 
     40 CA         28.3208   29.7652    3.9509 C.3       6 UNK         0.0367 
     41 CB         27.3294   28.9153    4.7617 C.3       6 UNK        -0.1929 
     42 C          27.6878   31.1252    3.5942 C.2       6 UNK         0.5070 
     43 O          27.5859   31.9810    4.4734 O.2       6 UNK        -0.5237 
     44 N          27.2924   31.3216    2.3286 N.am      7 UNK        -0.4739 
     45 CA         26.8291   32.6061    1.7979 C.3       7 UNK         0.0276 
     46 CB         26.0822   32.3597    0.4770 C.3       7 UNK        -0.1927 
     47 C          27.9621   33.6341    1.5938 C.2       7 UNK         0.5013 
     48 O          27.6618   34.8166    1.4214 O.2       7 UNK        -0.5193 
     49 N          29.2248   33.1860    1.5997 N.am      8 UNK        -0.4253 
     50 CA         30.4160   34.0075    1.4113 C.3       8 UNK         0.0242 
     51 CB         30.7930   34.0336   -0.0858 C.3       8 UNK        -0.2000 
     52 C          31.5220   33.4856    2.3415 C.2       8 UNK         0.4948 
     53 O          31.4167   33.6612    3.5572 O.2       8 UNK        -0.5275 
     54 N          32.5639   32.8655    1.7719 N.am      9 UNK        -0.4246 
     55 CA         33.6980   32.2745    2.4834 C.3       9 UNK         0.0261 
     56 CB         34.8650   32.0949    1.4943 C.3       9 UNK        -0.1959 
     57 C          33.3058   30.9518    3.1688 C.2       9 UNK         0.5033 
     58 O          33.5871   29.8760    2.6370 O.2       9 UNK        -0.5390 
     59 N          32.6459   31.0658    4.3285 N.am      10 UNK        -0.4215 
     60 CA         32.1955   29.9574    5.1746 C.3       10 UNK         0.0240 
     61 CB         31.4245   30.5338    6.3743 C.3       10 UNK        -0.1982 
     62 C          33.3456   29.0561    5.6627 C.2       10 UNK         0.4970 
     63 O          34.4747   29.5273    5.8234 O.2       10 UNK        -0.4916 
     64 N          33.0172   27.7814    5.9031 N.am      11 UNK        -0.4279 
     65 CA         33.9379   26.7205    6.3402 C.3       11 UNK         0.1003 
     66 C          34.6387   27.0264    7.6931 C.2       11 UNK         0.5709 
     67 N          35.9005   26.6453    7.8400 N.am      11 UNK        -0.7358 
     68 O          34.0348   27.5613    8.6217 O.2       11 UNK        -0.4999 
     69 C69        33.2279   25.3410    6.4058 C.3       12 UNK        -0.0954 
     70 S70        32.3224   24.9233    4.8800 S.3       12 UNK        -0.2268 
     71 C71        33.5612   23.9500    3.9731 C.3       12 UNK         0.0203 
     72 H72        24.0977   22.0441   -0.8404 H         1 UNK         0.0888 
     73 H73        24.3423   23.7912   -0.7547 H         1 UNK         0.0888 
     74 H74        24.8812   22.8909   -2.1742 H         1 UNK         0.0888 
     75 H75        27.1117   22.9494   -2.1492 H         1 UNK         0.3017 
     76 H76        29.2043   22.9017   -1.5953 H         1 UNK         0.0873 
     77 H77        28.3243   20.4373   -0.9391 H         1 UNK         0.0745 
     78 H78        28.8798   20.8298    0.6397 H         1 UNK         0.0745 
     79 H79        32.6004   20.1604    0.3278 H         1 UNK         0.0705 
     80 H80        31.1812   20.3278    1.3286 H         1 UNK         0.0705 
     81 H81        32.6466   21.6087    2.8858 H         1 UNK         0.1334 
     82 H82        33.4094   25.7062    1.9464 H         1 UNK         0.1417 
     83 H83        31.8479   23.0927   -1.0641 H         1 UNK         0.1562 
     84 H84        31.4588   25.5819   -1.1721 H         1 UNK         0.0748 
     85 H85        33.1804   25.5318   -1.4708 H         1 UNK         0.0748 
     86 H86        31.7340   27.7882    2.1331 H         1 UNK         0.0940 
     87 H87        30.8690   26.4625    1.4334 H         1 UNK         0.0940 
     88 H88        30.4555   29.0405   -0.0408 H         1 UNK         0.0703 
     89 H89        28.9721   26.6643    0.3352 H         1 UNK         0.3081 
     90 H90        25.7967   27.9308   -0.7744 H         1 UNK         0.0719 
     91 H91        26.0980   25.9038   -2.1953 H         1 UNK         0.0809 
     92 H92        27.0620   27.2510   -2.7762 H         1 UNK         0.0809 
     93 H93        27.8364   25.9393   -1.9064 H         1 UNK         0.0809 
     94 H94        26.9079   25.4794    0.4094 H         1 UNK         0.2990 
     95 H95        25.7591   26.1649    3.6542 H         1 UNK         0.0690 
     96 H96        23.5604   25.4877    2.7101 H         1 UNK         0.0788 
     97 H97        24.3579   24.1215    3.4724 H         1 UNK         0.0788 
     98 H98        24.3359   24.2639    1.7161 H         1 UNK         0.0788 
     99 H99        26.6997   23.7731    2.3324 H         1 UNK         0.2993 
    100 H100       30.1772   24.5110    2.7041 H         1 UNK         0.0949 
    101 H101       28.3903   22.5130    4.2017 H         1 UNK         0.0767 
    102 H102       30.1423   22.4137    4.0080 H         1 UNK         0.0767 
    103 H103       29.4362   23.7013    4.9678 H         1 UNK         0.0767 
    104 H104       28.8833   22.1748    1.8008 H         1 UNK         0.3013 
    105 H105       28.5291   28.0043    2.7900 H         1 UNK         0.3121 
    106 H106       29.1752   29.9831    4.5906 H         1 UNK         0.0774 
    107 H107       26.4797   28.6027    4.1543 H         1 UNK         0.0815 
    108 H108       26.9347   29.4741    5.6114 H         1 UNK         0.0815 
    109 H109       27.8061   28.0213    5.1632 H         1 UNK         0.0815 
    110 H110       27.4165   30.5721    1.6598 H         1 UNK         0.2987 
    111 H111       26.1246   33.0383    2.5120 H         1 UNK         0.0949 
    112 H112       26.7460   31.9647   -0.2928 H         1 UNK         0.0806 
    113 H113       25.2619   31.6537    0.6080 H         1 UNK         0.0806 
    114 H114       25.6542   33.2864    0.0922 H         1 UNK         0.0806 
    115 H115       29.4034   32.1997    1.7830 H         1 UNK         0.3010 
    116 H116       30.2115   35.0318    1.7303 H         1 UNK         0.0829 
    117 H117       30.0076   34.5082   -0.6744 H         1 UNK         0.0813 
    118 H118       31.7057   34.6065   -0.2560 H         1 UNK         0.0813 
    119 H119       30.9406   33.0310   -0.4894 H         1 UNK         0.0813 
    120 H120       32.5419   32.7250    0.7727 H         1 UNK         0.3038 
    121 H121       34.0264   32.9701    3.2590 H         1 UNK         0.0769 
    122 H122       34.5969   31.4389    0.6650 H         1 UNK         0.0811 
    123 H123       35.7303   31.6539    1.9909 H         1 UNK         0.0811 
    124 H124       35.1834   33.0506    1.0776 H         1 UNK         0.0811 
    125 H125       32.3974   32.0006    4.6282 H         1 UNK         0.3204 
    126 H126       31.5165   29.3513    4.5719 H         1 UNK         0.0748 
    127 H127       32.0768   31.1166    7.0263 H         1 UNK         0.0771 
    128 H128       30.6095   31.1838    6.0549 H         1 UNK         0.0771 
    129 H129       30.9870   29.7382    6.9790 H         1 UNK         0.0771 
    130 H130       32.0623   27.4866    5.7659 H         1 UNK         0.2980 
    131 H131       34.7129   26.6591    5.5737 H         1 UNK         0.0545 
    132 H132       36.3651   26.8207    8.7172 H         1 UNK         0.3459 
    133 H133       36.4010   26.1935    7.0906 H         1 UNK         0.3459 
    134 H134       33.9466   24.5477    6.6200 H         1 UNK         0.0616 
    135 H135       32.5070   25.3252    7.2256 H         1 UNK         0.0616 
    136 H136       33.7483   23.0158    4.5046 H         1 UNK         0.0634 
    137 H137       34.5064   24.4943    3.9475 H         1 UNK         0.0634 
@<TRIPOS>BOND
     1    1    2 1    
     2    1   72 1    
     3    1   73 1    
     4    1   74 1    
     5    2    3 2    
     6    2    4 am   BACKBONE|DICT|INTERRES
     7    4    5 1    
     8    4   75 1    
     9    5    6 1    
    10    5   35 1    
    11    5   76 1    
    12    6    7 1    
    13    6   77 1    
    14    6   78 1    
    15    7    8 1    
    16    8    9 1    
    17    8   79 1    
    18    8   80 1    
    19    9   10 ar   
    20    9   14 ar   
    21   10   11 ar   
    22   10   81 1    
    23   11   12 ar   
    24   11   71 1    
    25   12   13 ar   
    26   12   82 1    
    27   13   14 ar   
    28   13   15 1    
    29   14   83 1    
    30   15   16 1    
    31   15   84 1    
    32   15   85 1    
    33   16   17 1    
    34   17   18 1    
    35   17   86 1    
    36   17   87 1    
    37   18   19 1    
    38   18   37 1    
    39   18   88 1    
    40   19   20 am   BACKBONE|DICT|INTERRES
    41   19   89 1    
    42   20   21 2    
    43   20   22 1    
    44   22   23 1    
    45   22   24 1    
    46   22   90 1    
    47   23   91 1    
    48   23   92 1    
    49   23   93 1    
    50   24   25 am   BACKBONE|DICT|INTERRES
    51   24   94 1    
    52   25   26 2    
    53   25   27 1    
    54   27   28 1    
    55   27   29 1    
    56   27   95 1    
    57   28   96 1    
    58   28   97 1    
    59   28   98 1    
    60   29   30 am   BACKBONE|DICT|INTERRES
    61   29   99 1    
    62   30   31 2    
    63   30   32 1    
    64   32   33 1    
    65   32   34 1    
    66   32  100 1    
    67   33  101 1    
    68   33  102 1    
    69   33  103 1    
    70   34   35 am   BACKBONE|DICT|INTERRES
    71   34  104 1    
    72   35   36 2    
    73   37   38 2    
    74   37   39 am   BACKBONE|DICT|INTERRES
    75   39   40 1    
    76   39  105 1    
    77   40   41 1    
    78   40   42 1    
    79   40  106 1    
    80   41  107 1    
    81   41  108 1    
    82   41  109 1    
    83   42   43 2    
    84   42   44 am   BACKBONE|DICT|INTERRES
    85   44   45 1    
    86   44  110 1    
    87   45   46 1    
    88   45   47 1    
    89   45  111 1    
    90   46  112 1    
    91   46  113 1    
    92   46  114 1    
    93   47   48 2    
    94   47   49 am   BACKBONE|DICT|INTERRES
    95   49   50 1    
    96   49  115 1    
    97   50   51 1    
    98   50   52 1    
    99   50  116 1    
   100   51  117 1    
   101   51  118 1    
   102   51  119 1    
   103   52   53 2    
   104   52   54 am   BACKBONE|DICT|INTERRES
   105   54   55 1    
   106   54  120 1    
   107   55   56 1    
   108   55   57 1    
   109   55  121 1    
   110   56  122 1    
   111   56  123 1    
   112   56  124 1    
   113   57   58 2    
   114   57   59 am   BACKBONE|DICT|INTERRES
   115   59   60 1    
   116   59  125 1    
   117   60   61 1    
   118   60   62 1    
   119   60  126 1    
   120   61  127 1    
   121   61  128 1    
   122   61  129 1    
   123   62   63 2    
   124   62   64 am   BACKBONE|DICT|INTERRES
   125   64   65 1    
   126   64  130 1    
   127   65   66 1    
   128   65   69 1    
   129   65  131 1    
   130   66   67 am   BACKBONE|DICT|INTERRES
   131   66   68 2    
   132   67  132 1    
   133   67  133 1    
   134   69   70 1    
   135   69  134 1    
   136   69  135 1    
   137   70   71 1    
   138   71  136 1    
   139   71  137 1    
@<TRIPOS>SUBSTRUCTURE
     1 UNK         1 GROUP             0       ****    0 ROOT    
