@<TRIPOS>MOLECULE
3R136
137   139    1
SMALL
USER_CHARGES


@<TRIPOS>ATOM
      1 CA         30.1248   16.9578   -0.0034 C.3       0 UNK        -0.1979 
      2 C          29.4740   18.3323    0.0374 C.2       0 UNK         0.4864 
      3 O          28.7229   18.6826   -0.8752 O.2       0 UNK        -0.5359 
      4 N          29.7522   19.1170    1.0873 N.am      1 UNK        -0.4318 
      5 CA         29.1899   20.4512    1.3113 C.3       1 UNK         0.0824 
      6 C6         30.1188   21.3093    2.2123 C.3       12 UNK        -0.0944 
      7 S7         29.8525   23.0995    1.9766 S.3       12 UNK        -0.2672 
      8 C8         31.1702   23.4657    0.7804 C.3       12 UNK         0.0333 
      9 C9         31.1605   24.9201    0.3322 C.ar      12 UNK        -0.0807 
     10 C10        31.9671   25.8611    0.9793 C.ar      12 UNK        -0.0894 
     11 C11        32.0453   27.1790    0.5119 C.ar      12 UNK        -0.0804 
     12 C12        31.3062   27.5447   -0.6179 C.ar      12 UNK        -0.0824 
     13 C13        30.4887   26.6152   -1.2704 C.ar      12 UNK        -0.0762 
     14 C14        30.4077   25.3083   -0.7800 C.ar      12 UNK        -0.0782 
     15 C15        29.7608   26.9924   -2.5552 C.3       12 UNK         0.0230 
     16 S16        28.0375   27.5028   -2.2687 S.3       12 UNK        -0.2608 
     17 C17        28.2603   29.1507   -1.5147 C.3       12 UNK        -0.0989 
     18 CA         27.6707   29.2510   -0.0838 C.3       5 UNK         0.0716 
     19 N          28.1155   28.1432    0.7733 N.am      5 UNK        -0.4135 
     20 C          27.3698   27.6077    1.7454 C.2       4 UNK         0.5031 
     21 O          26.3340   28.1183    2.1789 O.2       4 UNK        -0.5229 
     22 CA         27.8372   26.2547    2.3014 C.3       4 UNK         0.0329 
     23 CB         28.4889   26.3921    3.6843 C.3       4 UNK        -0.2001 
     24 N          26.6883   25.3581    2.4090 N.am      4 UNK        -0.4303 
     25 C          26.2532   24.5747    1.4176 C.2       3 UNK         0.5044 
     26 O          26.8037   24.4722    0.3183 O.2       3 UNK        -0.5152 
     27 CA         24.9929   23.7523    1.6970 C.3       3 UNK         0.0319 
     28 CB         23.7646   24.3376    0.9786 C.3       3 UNK        -0.2001 
     29 N          25.2620   22.4011    1.2273 N.am      3 UNK        -0.4354 
     30 C          24.7403   21.2760    1.7263 C.2       2 UNK         0.4964 
     31 O          23.8353   21.2460    2.5611 O.2       2 UNK        -0.5047 
     32 CA         25.3610   19.9568    1.2313 C.3       2 UNK         0.0288 
     33 CB         24.6252   19.4456   -0.0179 C.3       2 UNK        -0.2113 
     34 N          26.7956   20.0686    0.9402 N.am      2 UNK        -0.4145 
     35 C          27.7473   20.3298    1.8489 C.2       1 UNK         0.5006 
     36 O          27.5240   20.4338    3.0571 O.2       1 UNK        -0.5103 
     37 C          27.9451   30.6523    0.5027 C.2       5 UNK         0.5055 
     38 O          27.5630   31.6368   -0.1316 O.2       5 UNK        -0.5220 
     39 N          28.6282   30.7363    1.6560 N.am      6 UNK        -0.4450 
     40 CA         29.0963   31.9698    2.3099 C.3       6 UNK         0.0367 
     41 CB         27.9107   32.8224    2.8091 C.3       6 UNK        -0.1929 
     42 C          30.1075   32.7750    1.4663 C.2       6 UNK         0.5070 
     43 O          30.1858   33.9971    1.5971 O.2       6 UNK        -0.5237 
     44 N          30.8878   32.0719    0.6309 N.am      7 UNK        -0.4739 
     45 CA         31.9561   32.6437   -0.1997 C.3       7 UNK         0.0276 
     46 CB         32.2785   31.6692   -1.3449 C.3       7 UNK        -0.1927 
     47 C          33.2299   32.9891    0.5982 C.2       7 UNK         0.5013 
     48 O          34.0842   33.7166    0.0909 O.2       7 UNK        -0.5193 
     49 N          33.3286   32.4677    1.8242 N.am      8 UNK        -0.4253 
     50 CA         34.3490   32.7545    2.8230 C.3       8 UNK         0.0242 
     51 CB         35.4261   31.6568    2.7819 C.3       8 UNK        -0.2000 
     52 C          33.6458   32.7821    4.1843 C.2       8 UNK         0.4948 
     53 O          32.5657   32.1994    4.3162 O.2       8 UNK        -0.5275 
     54 N          34.2748   33.4170    5.1827 N.am      9 UNK        -0.4246 
     55 CA         33.7403   33.5687    6.5445 C.3       9 UNK         0.0261 
     56 CB         34.6982   34.4340    7.3793 C.3       9 UNK        -0.1959 
     57 C          33.4523   32.2365    7.2624 C.2       9 UNK         0.5033 
     58 O          32.4851   32.1521    8.0203 O.2       9 UNK        -0.5390 
     59 N          34.2665   31.2110    6.9769 N.am      10 UNK        -0.4215 
     60 CA         34.0854   29.8377    7.4563 C.3       10 UNK         0.0240 
     61 CB         35.3782   29.0459    7.1983 C.3       10 UNK        -0.1982 
     62 C          32.8803   29.1125    6.8242 C.2       10 UNK         0.4970 
     63 O          32.4186   28.1223    7.3926 O.2       10 UNK        -0.4916 
     64 N          32.4026   29.6022    5.6736 N.am      11 UNK        -0.4279 
     65 CA         31.2643   29.0587    4.9195 C.3       11 UNK         0.1003 
     66 C          29.9168   29.7541    5.2675 C.2       11 UNK         0.5709 
     67 N          29.8580   30.6679    6.2298 N.am      11 UNK        -0.7358 
     68 O          28.9001   29.4629    4.6446 O.2       11 UNK        -0.4999 
     69 C69        31.5448   29.0715    3.3902 C.3       12 UNK        -0.0954 
     70 S70        33.0487   28.1371    2.9642 S.3       12 UNK        -0.2268 
     71 C71        33.0035   28.1869    1.1447 C.3       12 UNK         0.0203 
     72 H72        29.3602   16.1816   -0.0193 H         1 UNK         0.0888 
     73 H73        30.7318   16.8572   -0.9027 H         1 UNK         0.0888 
     74 H74        30.7667   16.7844    0.8602 H         1 UNK         0.0888 
     75 H75        30.3505   18.7655    1.8217 H         1 UNK         0.3017 
     76 H76        29.1341   20.9486    0.3397 H         1 UNK         0.0873 
     77 H77        31.1640   21.0921    1.9853 H         1 UNK         0.0745 
     78 H78        30.0014   21.0651    3.2697 H         1 UNK         0.0745 
     79 H79        32.1363   23.2211    1.2249 H         1 UNK         0.0705 
     80 H80        31.0593   22.8121   -0.0864 H         1 UNK         0.0705 
     81 H81        32.5651   25.5547    1.8266 H         1 UNK         0.1334 
     82 H82        31.4029   28.5444   -1.0172 H         1 UNK         0.1417 
     83 H83        29.7891   24.5811   -1.2892 H         1 UNK         0.1562 
     84 H84        29.7582   26.1380   -3.2338 H         1 UNK         0.0748 
     85 H85        30.2948   27.7856   -3.0812 H         1 UNK         0.0748 
     86 H86        27.7715   29.8733   -2.1715 H         1 UNK         0.0940 
     87 H87        29.3157   29.4234   -1.5212 H         1 UNK         0.0940 
     88 H88        26.5853   29.1781   -0.1858 H         1 UNK         0.0703 
     89 H89        28.9333   27.6412    0.4549 H         1 UNK         0.3081 
     90 H90        28.5734   25.8208    1.6214 H         1 UNK         0.0719 
     91 H91        29.4237   26.9440    3.6170 H         1 UNK         0.0809 
     92 H92        27.8425   26.9158    4.3899 H         1 UNK         0.0809 
     93 H93        28.7291   25.4163    4.1071 H         1 UNK         0.0809 
     94 H94        26.1477   25.4236    3.2593 H         1 UNK         0.2990 
     95 H95        24.8091   23.7319    2.7737 H         1 UNK         0.0690 
     96 H96        22.8687   23.7508    1.1821 H         1 UNK         0.0788 
     97 H97        23.9075   24.3673   -0.1025 H         1 UNK         0.0788 
     98 H98        23.5686   25.3577    1.3114 H         1 UNK         0.0788 
     99 H99        26.0132   22.3399    0.5517 H         1 UNK         0.2993 
    100 H100       25.2394   19.2197    2.0281 H         1 UNK         0.0949 
    101 H101       25.0043   18.4723   -0.3308 H         1 UNK         0.0767 
    102 H102       23.5583   19.3290    0.1784 H         1 UNK         0.0767 
    103 H103       24.7293   20.1331   -0.8584 H         1 UNK         0.0767 
    104 H104       27.0891   19.8966   -0.0145 H         1 UNK         0.3013 
    105 H105       28.8352   29.8754    2.1439 H         1 UNK         0.3121 
    106 H106       29.6553   31.6597    3.1911 H         1 UNK         0.0774 
    107 H107       28.2588   33.6532    3.4239 H         1 UNK         0.0815 
    108 H108       27.3382   33.2473    1.9845 H         1 UNK         0.0815 
    109 H109       27.2311   32.2310    3.4228 H         1 UNK         0.0815 
    110 H110       30.7470   31.0752    0.5718 H         1 UNK         0.2987 
    111 H111       31.5888   33.5743   -0.6384 H         1 UNK         0.0949 
    112 H112       32.6979   30.7329   -0.9782 H         1 UNK         0.0806 
    113 H113       31.3904   31.4366   -1.9330 H         1 UNK         0.0806 
    114 H114       33.0105   32.1033   -2.0275 H         1 UNK         0.0806 
    115 H115       32.5381   31.9563    2.1935 H         1 UNK         0.3010 
    116 H116       34.7967   33.7327    2.6343 H         1 UNK         0.0829 
    117 H117       35.9004   31.6069    1.8016 H         1 UNK         0.0813 
    118 H118       36.2132   31.8479    3.5121 H         1 UNK         0.0813 
    119 H119       35.0079   30.6727    2.9991 H         1 UNK         0.0813 
    120 H120       35.1626   33.8611    4.9940 H         1 UNK         0.3038 
    121 H121       32.7891   34.0989    6.4608 H         1 UNK         0.0769 
    122 H122       35.6838   33.9758    7.4700 H         1 UNK         0.0811 
    123 H123       34.3124   34.5792    8.3896 H         1 UNK         0.0811 
    124 H124       34.8258   35.4234    6.9397 H         1 UNK         0.0811 
    125 H125       35.0378   31.3768    6.3470 H         1 UNK         0.3204 
    126 H126       33.9144   29.8745    8.5343 H         1 UNK         0.0748 
    127 H127       36.2321   29.5042    7.6977 H         1 UNK         0.0771 
    128 H128       35.2938   28.0261    7.5768 H         1 UNK         0.0771 
    129 H129       35.6053   28.9795    6.1332 H         1 UNK         0.0771 
    130 H130       32.7820   30.4646    5.3003 H         1 UNK         0.2980 
    131 H131       31.1247   28.0150    5.2061 H         1 UNK         0.0545 
    132 H132       30.6870   30.9365    6.7385 H         1 UNK         0.3459 
    133 H133       28.9743   31.1040    6.4375 H         1 UNK         0.3459 
    134 H134       31.6597   30.0925    3.0275 H         1 UNK         0.0616 
    135 H135       30.7135   28.6406    2.8322 H         1 UNK         0.0616 
    136 H136       32.7639   29.2038    0.8335 H         1 UNK         0.0634 
    137 H137       34.0076   27.9802    0.7727 H         1 UNK         0.0634 
@<TRIPOS>BOND
     1    1    2 1    
     2    1   72 1    
     3    1   73 1    
     4    1   74 1    
     5    2    3 2    
     6    2    4 am   BACKBONE|DICT|INTERRES
     7    4    5 1    
     8    4   75 1    
     9    5    6 1    
    10    5   35 1    
    11    5   76 1    
    12    6    7 1    
    13    6   77 1    
    14    6   78 1    
    15    7    8 1    
    16    8    9 1    
    17    8   79 1    
    18    8   80 1    
    19    9   10 ar   
    20    9   14 ar   
    21   10   11 ar   
    22   10   81 1    
    23   11   12 ar   
    24   11   71 1    
    25   12   13 ar   
    26   12   82 1    
    27   13   14 ar   
    28   13   15 1    
    29   14   83 1    
    30   15   16 1    
    31   15   84 1    
    32   15   85 1    
    33   16   17 1    
    34   17   18 1    
    35   17   86 1    
    36   17   87 1    
    37   18   19 1    
    38   18   37 1    
    39   18   88 1    
    40   19   20 am   BACKBONE|DICT|INTERRES
    41   19   89 1    
    42   20   21 2    
    43   20   22 1    
    44   22   23 1    
    45   22   24 1    
    46   22   90 1    
    47   23   91 1    
    48   23   92 1    
    49   23   93 1    
    50   24   25 am   BACKBONE|DICT|INTERRES
    51   24   94 1    
    52   25   26 2    
    53   25   27 1    
    54   27   28 1    
    55   27   29 1    
    56   27   95 1    
    57   28   96 1    
    58   28   97 1    
    59   28   98 1    
    60   29   30 am   BACKBONE|DICT|INTERRES
    61   29   99 1    
    62   30   31 2    
    63   30   32 1    
    64   32   33 1    
    65   32   34 1    
    66   32  100 1    
    67   33  101 1    
    68   33  102 1    
    69   33  103 1    
    70   34   35 am   BACKBONE|DICT|INTERRES
    71   34  104 1    
    72   35   36 2    
    73   37   38 2    
    74   37   39 am   BACKBONE|DICT|INTERRES
    75   39   40 1    
    76   39  105 1    
    77   40   41 1    
    78   40   42 1    
    79   40  106 1    
    80   41  107 1    
    81   41  108 1    
    82   41  109 1    
    83   42   43 2    
    84   42   44 am   BACKBONE|DICT|INTERRES
    85   44   45 1    
    86   44  110 1    
    87   45   46 1    
    88   45   47 1    
    89   45  111 1    
    90   46  112 1    
    91   46  113 1    
    92   46  114 1    
    93   47   48 2    
    94   47   49 am   BACKBONE|DICT|INTERRES
    95   49   50 1    
    96   49  115 1    
    97   50   51 1    
    98   50   52 1    
    99   50  116 1    
   100   51  117 1    
   101   51  118 1    
   102   51  119 1    
   103   52   53 2    
   104   52   54 am   BACKBONE|DICT|INTERRES
   105   54   55 1    
   106   54  120 1    
   107   55   56 1    
   108   55   57 1    
   109   55  121 1    
   110   56  122 1    
   111   56  123 1    
   112   56  124 1    
   113   57   58 2    
   114   57   59 am   BACKBONE|DICT|INTERRES
   115   59   60 1    
   116   59  125 1    
   117   60   61 1    
   118   60   62 1    
   119   60  126 1    
   120   61  127 1    
   121   61  128 1    
   122   61  129 1    
   123   62   63 2    
   124   62   64 am   BACKBONE|DICT|INTERRES
   125   64   65 1    
   126   64  130 1    
   127   65   66 1    
   128   65   69 1    
   129   65  131 1    
   130   66   67 am   BACKBONE|DICT|INTERRES
   131   66   68 2    
   132   67  132 1    
   133   67  133 1    
   134   69   70 1    
   135   69  134 1    
   136   69  135 1    
   137   70   71 1    
   138   71  136 1    
   139   71  137 1    
@<TRIPOS>SUBSTRUCTURE
     1 UNK         1 GROUP             0       ****    0 ROOT    
