@<TRIPOS>MOLECULE
3R136
137   139    1
SMALL
USER_CHARGES


@<TRIPOS>ATOM
      1 CA         32.7688   22.7751   -1.6111 C.3       0 UNK        -0.1979 
      2 C          31.4773   22.9915   -0.8380 C.2       0 UNK         0.4864 
      3 O          30.9730   24.1124   -0.7900 O.2       0 UNK        -0.5359 
      4 N          30.9224   21.9241   -0.2487 N.am      1 UNK        -0.4318 
      5 CA         29.7345   21.9521    0.6198 C.3       1 UNK         0.0824 
      6 C6         29.5121   20.6000    1.3480 C.3       12 UNK        -0.0944 
      7 S7         31.0146   19.9331    2.1450 S.3       12 UNK        -0.2672 
      8 C8         30.8621   20.5649    3.8453 C.3       12 UNK         0.0333 
      9 C9         31.0997   22.0664    3.9168 C.ar      12 UNK        -0.0807 
     10 C10        32.3865   22.5824    3.7292 C.ar      12 UNK        -0.0894 
     11 C11        32.6165   23.9592    3.8053 C.ar      12 UNK        -0.0804 
     12 C12        31.5495   24.8224    4.0653 C.ar      12 UNK        -0.0824 
     13 C13        30.2614   24.3175    4.2599 C.ar      12 UNK        -0.0762 
     14 C14        30.0401   22.9390    4.1855 C.ar      12 UNK        -0.0782 
     15 C15        29.1178   25.2646    4.5759 C.3       12 UNK         0.0230 
     16 S16        28.1746   25.6939    3.0827 S.3       12 UNK        -0.2608 
     17 C17        27.1580   27.0554    3.7409 C.3       12 UNK        -0.0989 
     18 CA         27.5818   28.4145    3.1350 C.3       5 UNK         0.0716 
     19 N          27.1250   28.5451    1.7483 N.am      5 UNK        -0.4135 
     20 C          27.2597   29.6097    0.9486 C.2       4 UNK         0.5031 
     21 O          27.8485   30.6448    1.2719 O.2       4 UNK        -0.5229 
     22 CA         26.6690   29.4700   -0.4687 C.3       4 UNK         0.0329 
     23 CB         26.5544   30.8247   -1.1919 C.3       4 UNK        -0.2001 
     24 N          27.4551   28.5607   -1.3065 N.am      4 UNK        -0.4303 
     25 C          27.5098   27.2281   -1.1805 C.2       3 UNK         0.5044 
     26 O          26.8766   26.6006   -0.3275 O.2       3 UNK        -0.5152 
     27 CA         28.4392   26.4995   -2.1718 C.3       3 UNK         0.0319 
     28 CB         29.9059   26.9099   -1.9564 C.3       3 UNK        -0.2001 
     29 N          28.3414   25.0402   -2.0774 N.am      3 UNK        -0.4354 
     30 C          27.2948   24.3152   -2.5030 C.2       2 UNK         0.4964 
     31 O          26.3196   24.8063   -3.0747 O.2       2 UNK        -0.5047 
     32 CA         27.3342   22.7865   -2.2991 C.3       2 UNK         0.0288 
     33 CB         27.4448   22.0633   -3.6528 C.3       2 UNK        -0.2113 
     34 N          28.4288   22.3340   -1.4388 N.am      2 UNK        -0.4145 
     35 C          28.4365   22.3897   -0.0990 C.2       1 UNK         0.5006 
     36 O          27.4708   22.7594    0.5696 O.2       1 UNK        -0.5103 
     37 C          27.0906   29.5724    4.0226 C.2       5 UNK         0.5055 
     38 O          25.8941   29.8704    4.0281 O.2       5 UNK        -0.5220 
     39 N          28.0310   30.2011    4.7408 N.am      6 UNK        -0.4450 
     40 CA         27.8918   31.3364    5.6641 C.3       6 UNK         0.0367 
     41 CB         26.8967   31.0352    6.8019 C.3       6 UNK        -0.1929 
     42 C          27.5699   32.6757    4.9776 C.2       6 UNK         0.5070 
     43 O          28.0470   33.7120    5.4404 O.2       6 UNK        -0.5237 
     44 N          26.7966   32.6431    3.8856 N.am      7 UNK        -0.4739 
     45 CA         26.4921   33.7918    3.0320 C.3       7 UNK         0.0276 
     46 CB         25.3580   33.4189    2.0653 C.3       7 UNK        -0.1927 
     47 C          27.7240   34.2987    2.2629 C.2       7 UNK         0.5013 
     48 O          27.8710   35.5109    2.0990 O.2       7 UNK        -0.5193 
     49 N          28.5883   33.3732    1.8267 N.am      8 UNK        -0.4253 
     50 CA         29.8520   33.6710    1.1541 C.3       8 UNK         0.0242 
     51 CB         29.6291   33.8126   -0.3623 C.3       8 UNK        -0.2000 
     52 C          30.9296   32.6210    1.4550 C.2       8 UNK         0.4948 
     53 O          32.0766   33.0001    1.6966 O.2       8 UNK        -0.5275 
     54 N          30.5684   31.3312    1.4161 N.am      9 UNK        -0.4246 
     55 CA         31.4981   30.2183    1.6116 C.3       9 UNK         0.0261 
     56 CB         31.0013   28.9953    0.8249 C.3       9 UNK        -0.1959 
     57 C          31.6555   29.8742    3.0985 C.2       9 UNK         0.5033 
     58 O          30.6755   29.9084    3.8475 O.2       9 UNK        -0.5390 
     59 N          32.8785   29.4999    3.4806 N.am      10 UNK        -0.4215 
     60 CA         33.2742   29.0425    4.8080 C.3       10 UNK         0.0240 
     61 CB         33.3047   30.2216    5.8010 C.3       10 UNK        -0.1982 
     62 C          34.6573   28.3904    4.6853 C.2       10 UNK         0.4970 
     63 O          35.3736   28.6613    3.7169 O.2       10 UNK        -0.4916 
     64 N          35.0082   27.5568    5.6670 N.am      11 UNK        -0.4279 
     65 CA         36.2897   26.8359    5.7453 C.3       11 UNK         0.1003 
     66 C          36.7690   26.5781    7.2041 C.2       11 UNK         0.5709 
     67 N          36.1885   27.2142    8.2163 N.am      11 UNK        -0.7358 
     68 O          37.7010   25.8090    7.4283 O.2       11 UNK        -0.4999 
     69 C69        36.3248   25.5734    4.8349 C.3       12 UNK        -0.0954 
     70 S70        34.9669   24.3990    5.1678 S.3       12 UNK        -0.2268 
     71 C71        34.0168   24.5188    3.6218 C.3       12 UNK         0.0203 
     72 H72        33.5646   23.3857   -1.1855 H         1 UNK         0.0888 
     73 H73        33.0896   21.7337   -1.5861 H         1 UNK         0.0888 
     74 H74        32.6358   23.0656   -2.6528 H         1 UNK         0.0888 
     75 H75        31.3838   21.0271   -0.3101 H         1 UNK         0.3017 
     76 H76        29.9261   22.7155    1.3761 H         1 UNK         0.0873 
     77 H77        28.7246   20.6957    2.0982 H         1 UNK         0.0745 
     78 H78        29.1618   19.8449    0.6414 H         1 UNK         0.0745 
     79 H79        31.5961   20.0587    4.4739 H         1 UNK         0.0705 
     80 H80        29.8832   20.2999    4.2479 H         1 UNK         0.0705 
     81 H81        33.2102   21.9104    3.5291 H         1 UNK         0.1334 
     82 H82        31.7231   25.8882    4.1265 H         1 UNK         0.1417 
     83 H83        29.0421   22.5492    4.3348 H         1 UNK         0.1562 
     84 H84        29.5069   26.1756    5.0343 H         1 UNK         0.0748 
     85 H85        28.4489   24.8115    5.3095 H         1 UNK         0.0748 
     86 H86        27.2411   27.0634    4.8300 H         1 UNK         0.0940 
     87 H87        26.1069   26.8485    3.5305 H         1 UNK         0.0940 
     88 H88        28.6709   28.4532    3.1102 H         1 UNK         0.0703 
     89 H89        26.7267   27.7088    1.3333 H         1 UNK         0.3081 
     90 H90        25.6610   29.0624   -0.3653 H         1 UNK         0.0719 
     91 H91        27.5306   31.2826   -1.3523 H         1 UNK         0.0809 
     92 H92        26.0725   30.7157   -2.1636 H         1 UNK         0.0809 
     93 H93        25.9544   31.5283   -0.6155 H         1 UNK         0.0809 
     94 H94        28.0206   28.9966   -2.0204 H         1 UNK         0.2990 
     95 H95        28.1446   26.7923   -3.1818 H         1 UNK         0.0690 
     96 H96        30.5734   26.3633   -2.6231 H         1 UNK         0.0788 
     97 H97        30.2285   26.7158   -0.9326 H         1 UNK         0.0788 
     98 H98        30.0580   27.9708   -2.1553 H         1 UNK         0.0788 
     99 H99        29.1024   24.5749   -1.5940 H         1 UNK         0.2993 
    100 H100       26.3870   22.5016   -1.8357 H         1 UNK         0.0949 
    101 H101       28.3719   22.3141   -4.1699 H         1 UNK         0.0767 
    102 H102       27.4103   20.9806   -3.5286 H         1 UNK         0.0767 
    103 H103       26.6198   22.3371   -4.3120 H         1 UNK         0.0767 
    104 H104       29.2675   22.0144   -1.9012 H         1 UNK         0.3013 
    105 H105       29.0022   29.9481    4.5476 H         1 UNK         0.3121 
    106 H106       28.8776   31.4554    6.1170 H         1 UNK         0.0774 
    107 H107       26.9043   31.8355    7.5430 H         1 UNK         0.0815 
    108 H108       25.8728   30.9447    6.4385 H         1 UNK         0.0815 
    109 H109       27.1535   30.1113    7.3199 H         1 UNK         0.0815 
    110 H110       26.4147   31.7430    3.6126 H         1 UNK         0.2987 
    111 H111       26.1449   34.6067    3.6711 H         1 UNK         0.0949 
    112 H112       25.1240   34.2478    1.3958 H         1 UNK         0.0806 
    113 H113       25.6248   32.5620    1.4475 H         1 UNK         0.0806 
    114 H114       24.4442   33.1696    2.6050 H         1 UNK         0.0806 
    115 H115       28.3572   32.3932    1.9619 H         1 UNK         0.3010 
    116 H116       30.2337   34.6221    1.5324 H         1 UNK         0.0829 
    117 H117       28.9346   34.6219   -0.5881 H         1 UNK         0.0813 
    118 H118       30.5652   34.0365   -0.8755 H         1 UNK         0.0813 
    119 H119       29.2288   32.8965   -0.7965 H         1 UNK         0.0813 
    120 H120       29.5922   31.0841    1.2684 H         1 UNK         0.3038 
    121 H121       32.4739   30.4990    1.2084 H         1 UNK         0.0769 
    122 H122       30.0480   28.6255    1.1995 H         1 UNK         0.0811 
    123 H123       31.7139   28.1720    0.8900 H         1 UNK         0.0811 
    124 H124       30.8773   29.2341   -0.2308 H         1 UNK         0.0811 
    125 H125       33.6355   29.4680    2.8066 H         1 UNK         0.3204 
    126 H126       32.5597   28.2896    5.1476 H         1 UNK         0.0748 
    127 H127       33.6239   29.8962    6.7917 H         1 UNK         0.0771 
    128 H128       33.9933   31.0022    5.4749 H         1 UNK         0.0771 
    129 H129       32.3195   30.6739    5.9163 H         1 UNK         0.0771 
    130 H130       34.3576   27.3617    6.4140 H         1 UNK         0.2980 
    131 H131       37.0551   27.5124    5.3602 H         1 UNK         0.0545 
    132 H132       35.4747   27.9070    8.0634 H         1 UNK         0.3459 
    133 H133       36.5193   27.0376    9.1520 H         1 UNK         0.3459 
    134 H134       37.2727   25.0430    4.9386 H         1 UNK         0.0616 
    135 H135       36.2870   25.8812    3.7891 H         1 UNK         0.0616 
    136 H136       34.5394   23.9786    2.8310 H         1 UNK         0.0634 
    137 H137       33.9621   25.5612    3.3033 H         1 UNK         0.0634 
@<TRIPOS>BOND
     1    1    2 1    
     2    1   72 1    
     3    1   73 1    
     4    1   74 1    
     5    2    3 2    
     6    2    4 am   BACKBONE|DICT|INTERRES
     7    4    5 1    
     8    4   75 1    
     9    5    6 1    
    10    5   35 1    
    11    5   76 1    
    12    6    7 1    
    13    6   77 1    
    14    6   78 1    
    15    7    8 1    
    16    8    9 1    
    17    8   79 1    
    18    8   80 1    
    19    9   10 ar   
    20    9   14 ar   
    21   10   11 ar   
    22   10   81 1    
    23   11   12 ar   
    24   11   71 1    
    25   12   13 ar   
    26   12   82 1    
    27   13   14 ar   
    28   13   15 1    
    29   14   83 1    
    30   15   16 1    
    31   15   84 1    
    32   15   85 1    
    33   16   17 1    
    34   17   18 1    
    35   17   86 1    
    36   17   87 1    
    37   18   19 1    
    38   18   37 1    
    39   18   88 1    
    40   19   20 am   BACKBONE|DICT|INTERRES
    41   19   89 1    
    42   20   21 2    
    43   20   22 1    
    44   22   23 1    
    45   22   24 1    
    46   22   90 1    
    47   23   91 1    
    48   23   92 1    
    49   23   93 1    
    50   24   25 am   BACKBONE|DICT|INTERRES
    51   24   94 1    
    52   25   26 2    
    53   25   27 1    
    54   27   28 1    
    55   27   29 1    
    56   27   95 1    
    57   28   96 1    
    58   28   97 1    
    59   28   98 1    
    60   29   30 am   BACKBONE|DICT|INTERRES
    61   29   99 1    
    62   30   31 2    
    63   30   32 1    
    64   32   33 1    
    65   32   34 1    
    66   32  100 1    
    67   33  101 1    
    68   33  102 1    
    69   33  103 1    
    70   34   35 am   BACKBONE|DICT|INTERRES
    71   34  104 1    
    72   35   36 2    
    73   37   38 2    
    74   37   39 am   BACKBONE|DICT|INTERRES
    75   39   40 1    
    76   39  105 1    
    77   40   41 1    
    78   40   42 1    
    79   40  106 1    
    80   41  107 1    
    81   41  108 1    
    82   41  109 1    
    83   42   43 2    
    84   42   44 am   BACKBONE|DICT|INTERRES
    85   44   45 1    
    86   44  110 1    
    87   45   46 1    
    88   45   47 1    
    89   45  111 1    
    90   46  112 1    
    91   46  113 1    
    92   46  114 1    
    93   47   48 2    
    94   47   49 am   BACKBONE|DICT|INTERRES
    95   49   50 1    
    96   49  115 1    
    97   50   51 1    
    98   50   52 1    
    99   50  116 1    
   100   51  117 1    
   101   51  118 1    
   102   51  119 1    
   103   52   53 2    
   104   52   54 am   BACKBONE|DICT|INTERRES
   105   54   55 1    
   106   54  120 1    
   107   55   56 1    
   108   55   57 1    
   109   55  121 1    
   110   56  122 1    
   111   56  123 1    
   112   56  124 1    
   113   57   58 2    
   114   57   59 am   BACKBONE|DICT|INTERRES
   115   59   60 1    
   116   59  125 1    
   117   60   61 1    
   118   60   62 1    
   119   60  126 1    
   120   61  127 1    
   121   61  128 1    
   122   61  129 1    
   123   62   63 2    
   124   62   64 am   BACKBONE|DICT|INTERRES
   125   64   65 1    
   126   64  130 1    
   127   65   66 1    
   128   65   69 1    
   129   65  131 1    
   130   66   67 am   BACKBONE|DICT|INTERRES
   131   66   68 2    
   132   67  132 1    
   133   67  133 1    
   134   69   70 1    
   135   69  134 1    
   136   69  135 1    
   137   70   71 1    
   138   71  136 1    
   139   71  137 1    
@<TRIPOS>SUBSTRUCTURE
     1 UNK         1 GROUP             0       ****    0 ROOT    
