@<TRIPOS>MOLECULE
3R136
137   139    1
SMALL
USER_CHARGES


@<TRIPOS>ATOM
      1 CA         25.8464   18.8793    2.7932 C.3       0 UNK        -0.1979 
      2 C          26.7832   19.4900    1.7610 C.2       0 UNK         0.4864 
      3 O          27.3595   18.7608    0.9517 O.2       0 UNK        -0.5359 
      4 N          26.9453   20.8195    1.7885 N.am      1 UNK        -0.4318 
      5 CA         27.7502   21.5812    0.8282 C.3       1 UNK         0.0824 
      6 C6         28.1200   22.9784    1.3931 C.3       12 UNK        -0.0944 
      7 S7         29.7038   23.5834    0.7222 S.3       12 UNK        -0.2672 
      8 C8         30.8514   23.2062    2.0858 C.3       12 UNK         0.0333 
      9 C9         31.0237   24.3983    3.0155 C.ar      12 UNK        -0.0807 
     10 C10        32.0477   25.3201    2.7780 C.ar      12 UNK        -0.0894 
     11 C11        32.2230   26.4208    3.6210 C.ar      12 UNK        -0.0804 
     12 C12        31.3579   26.6033    4.7029 C.ar      12 UNK        -0.0824 
     13 C13        30.3263   25.6924    4.9491 C.ar      12 UNK        -0.0762 
     14 C14        30.1727   24.5828    4.1101 C.ar      12 UNK        -0.0782 
     15 C15        29.3659   25.9204    6.1082 C.3       12 UNK         0.0230 
     16 S16        27.6746   26.2835    5.5319 S.3       12 UNK        -0.2608 
     17 C17        27.8972   27.8575    4.6279 C.3       12 UNK        -0.0989 
     18 CA         28.1754   27.6552    3.1115 C.3       5 UNK         0.0716 
     19 N          27.1850   26.7944    2.4556 N.am      5 UNK        -0.4135 
     20 C          25.9004   27.0751    2.1968 C.2       4 UNK         0.5031 
     21 O          25.3492   28.1420    2.4747 O.2       4 UNK        -0.5229 
     22 CA         25.1054   25.9577    1.4923 C.3       4 UNK         0.0329 
     23 CB         23.6134   26.0032    1.8706 C.3       4 UNK        -0.2001 
     24 N          25.2143   25.9274    0.0256 N.am      4 UNK        -0.4303 
     25 C          26.3098   26.0510   -0.7386 C.2       3 UNK         0.5044 
     26 O          27.4334   26.3482   -0.3292 O.2       3 UNK        -0.5152 
     27 CA         26.1456   25.6787   -2.2137 C.3       3 UNK         0.0319 
     28 CB         26.7129   26.7474   -3.1636 C.3       3 UNK        -0.2001 
     29 N          26.8756   24.4293   -2.3779 N.am      3 UNK        -0.4354 
     30 C          26.5018   23.3965   -3.1405 C.2       2 UNK         0.4964 
     31 O          25.5536   23.4268   -3.9259 O.2       2 UNK        -0.5047 
     32 CA         27.3081   22.0944   -2.9750 C.3       2 UNK         0.0288 
     33 CB         28.4895   22.0620   -3.9583 C.3       2 UNK        -0.2113 
     34 N          27.8058   21.8880   -1.6086 N.am      2 UNK        -0.4145 
     35 C          27.0282   21.6930   -0.5329 C.2       1 UNK         0.5006 
     36 O          25.7957   21.6402   -0.5811 O.2       1 UNK        -0.5103 
     37 C          28.4137   28.9815    2.3521 C.2       5 UNK         0.5055 
     38 O          28.7167   30.0024    2.9754 O.2       5 UNK        -0.5220 
     39 N          28.2695   28.9393    1.0167 N.am      6 UNK        -0.4450 
     40 CA         28.2355   30.1026    0.1241 C.3       6 UNK         0.0367 
     41 CB         27.8696   29.6427   -1.2938 C.3       6 UNK        -0.1929 
     42 C          29.5161   30.9516    0.0990 C.2       6 UNK         0.5070 
     43 O          29.4325   32.1501   -0.1723 O.2       6 UNK        -0.5237 
     44 N          30.6709   30.3517    0.4172 N.am      7 UNK        -0.4739 
     45 CA         31.9670   31.0285    0.5458 C.3       7 UNK         0.0276 
     46 CB         33.0917   29.9985    0.3442 C.3       7 UNK        -0.1927 
     47 C          32.0901   31.8059    1.8748 C.2       7 UNK         0.5013 
     48 O          33.0455   31.6032    2.6275 O.2       7 UNK        -0.5193 
     49 N          31.0935   32.6629    2.1439 N.am      8 UNK        -0.4253 
     50 CA         30.9461   33.5709    3.2887 C.3       8 UNK         0.0242 
     51 CB         31.9401   34.7436    3.1509 C.3       8 UNK        -0.2000 
     52 C          31.0448   32.8877    4.6682 C.2       8 UNK         0.4948 
     53 O          31.4816   33.5285    5.6259 O.2       8 UNK        -0.5275 
     54 N          30.6940   31.5940    4.7463 N.am      9 UNK        -0.4246 
     55 CA         30.8191   30.6679    5.8849 C.3       9 UNK         0.0261 
     56 CB         29.8843   31.0768    7.0382 C.3       9 UNK        -0.1959 
     57 C          32.2531   30.4106    6.3984 C.2       9 UNK         0.5033 
     58 O          32.5319   29.2993    6.8474 O.2       9 UNK        -0.5390 
     59 N          33.1333   31.4147    6.3266 N.am      10 UNK        -0.4215 
     60 CA         34.5430   31.3609    6.7159 C.3       10 UNK         0.0240 
     61 CB         35.0681   32.7987    6.8640 C.3       10 UNK        -0.1982 
     62 C          35.4318   30.5639    5.7433 C.2       10 UNK         0.4970 
     63 O          36.5317   30.1752    6.1387 O.2       10 UNK        -0.4916 
     64 N          34.9627   30.3527    4.5051 N.am      11 UNK        -0.4279 
     65 CA         35.6610   29.6462    3.4170 C.3       11 UNK         0.1003 
     66 C          36.8376   30.4496    2.7851 C.2       11 UNK         0.5709 
     67 N          36.9373   31.7560    3.0018 N.am      11 UNK        -0.7358 
     68 O          37.6589   29.8911    2.0613 O.2       11 UNK        -0.4999 
     69 C69        36.0520   28.1740    3.7562 C.3       12 UNK        -0.0954 
     70 S70        34.7361   27.1428    4.4945 S.3       12 UNK        -0.2268 
     71 C71        33.3429   27.4143    3.3603 C.3       12 UNK         0.0203 
     72 H72        25.0273   18.3610    2.2954 H         1 UNK         0.0888 
     73 H73        26.3839   18.1575    3.4076 H         1 UNK         0.0888 
     74 H74        25.4186   19.6339    3.4531 H         1 UNK         0.0888 
     75 H75        26.4150   21.3666    2.4509 H         1 UNK         0.3017 
     76 H76        28.6705   21.0129    0.6719 H         1 UNK         0.0873 
     77 H77        28.1981   22.9435    2.4801 H         1 UNK         0.0745 
     78 H78        27.3433   23.7141    1.1820 H         1 UNK         0.0745 
     79 H79        30.5110   22.3304    2.6406 H         1 UNK         0.0705 
     80 H80        31.8168   22.9307    1.6585 H         1 UNK         0.0705 
     81 H81        32.7106   25.1782    1.9353 H         1 UNK         0.1334 
     82 H82        31.4925   27.4555    5.3532 H         1 UNK         0.1417 
     83 H83        29.3769   23.8768    4.3026 H         1 UNK         0.1562 
     84 H84        29.7097   26.7339    6.7494 H         1 UNK         0.0748 
     85 H85        29.3422   25.0268    6.7333 H         1 UNK         0.0748 
     86 H86        28.7031   28.4163    5.1004 H         1 UNK         0.0940 
     87 H87        26.9964   28.4580    4.7671 H         1 UNK         0.0940 
     88 H88        29.1191   27.1218    3.0122 H         1 UNK         0.0703 
     89 H89        27.5511   25.9201    2.1073 H         1 UNK         0.3081 
     90 H90        25.4940   25.0069    1.8602 H         1 UNK         0.0719 
     91 H91        23.1213   26.8885    1.4654 H         1 UNK         0.0809 
     92 H92        23.0812   25.1253    1.5038 H         1 UNK         0.0809 
     93 H93        23.4845   26.0267    2.9538 H         1 UNK         0.0809 
     94 H94        24.3580   25.6843   -0.4511 H         1 UNK         0.2990 
     95 H95        25.0864   25.5308   -2.4359 H         1 UNK         0.0690 
     96 H96        26.6209   26.4365   -4.2043 H         1 UNK         0.0788 
     97 H97        27.7675   26.9455   -2.9691 H         1 UNK         0.0788 
     98 H98        26.1718   27.6879   -3.0594 H         1 UNK         0.0788 
     99 H99        27.6629   24.3149   -1.7526 H         1 UNK         0.2993 
    100 H100       26.6388   21.2650   -3.2145 H         1 UNK         0.0949 
    101 H101       28.1452   22.1913   -4.9856 H         1 UNK         0.0767 
    102 H102       29.2088   22.8561   -3.7532 H         1 UNK         0.0767 
    103 H103       29.0176   21.1093   -3.9133 H         1 UNK         0.0767 
    104 H104       28.8067   21.9388   -1.4783 H         1 UNK         0.3013 
    105 H105       28.0386   28.0439    0.5938 H         1 UNK         0.3121 
    106 H106       27.4357   30.7540    0.4826 H         1 UNK         0.0774 
    107 H107       27.8376   30.4851   -1.9865 H         1 UNK         0.0815 
    108 H108       28.5926   28.9249   -1.6827 H         1 UNK         0.0815 
    109 H109       26.8851   29.1764   -1.3095 H         1 UNK         0.0815 
    110 H110       30.6421   29.3712    0.6559 H         1 UNK         0.2987 
    111 H111       32.0563   31.7672   -0.2541 H         1 UNK         0.0949 
    112 H112       33.0464   29.2079    1.0904 H         1 UNK         0.0806 
    113 H113       33.0299   29.5331   -0.6397 H         1 UNK         0.0806 
    114 H114       34.0736   30.4684    0.4157 H         1 UNK         0.0806 
    115 H115       30.3527   32.7093    1.4491 H         1 UNK         0.3010 
    116 H116       29.9362   33.9790    3.2277 H         1 UNK         0.0829 
    117 H117       31.8428   35.2351    2.1829 H         1 UNK         0.0813 
    118 H118       31.7652   35.5028    3.9144 H         1 UNK         0.0813 
    119 H119       32.9729   34.4082    3.2542 H         1 UNK         0.0813 
    120 H120       30.3140   31.1723    3.9052 H         1 UNK         0.3038 
    121 H121       30.4717   29.7092    5.5039 H         1 UNK         0.0769 
    122 H122       28.8502   31.1499    6.7013 H         1 UNK         0.0811 
    123 H123       30.1663   32.0376    7.4698 H         1 UNK         0.0811 
    124 H124       29.9117   30.3395    7.8418 H         1 UNK         0.0811 
    125 H125       32.7706   32.3112    6.0068 H         1 UNK         0.3204 
    126 H126       34.6061   30.8695    7.6891 H         1 UNK         0.0748 
    127 H127       34.5029   33.3512    7.6150 H         1 UNK         0.0771 
    128 H128       36.1131   32.8050    7.1776 H         1 UNK         0.0771 
    129 H129       35.0044   33.3500    5.9249 H         1 UNK         0.0771 
    130 H130       34.0816   30.7744    4.2340 H         1 UNK         0.2980 
    131 H131       34.9319   29.5967    2.6111 H         1 UNK         0.0545 
    132 H132       37.6947   32.2706    2.5814 H         1 UNK         0.3459 
    133 H133       36.2527   32.2313    3.5669 H         1 UNK         0.3459 
    134 H134       36.3885   27.6623    2.8530 H         1 UNK         0.0616 
    135 H135       36.9030   28.1570    4.4385 H         1 UNK         0.0616 
    136 H136       32.9647   28.4306    3.4804 H         1 UNK         0.0634 
    137 H137       33.6982   27.3225    2.3331 H         1 UNK         0.0634 
@<TRIPOS>BOND
     1    1    2 1    
     2    1   72 1    
     3    1   73 1    
     4    1   74 1    
     5    2    3 2    
     6    2    4 am   BACKBONE|DICT|INTERRES
     7    4    5 1    
     8    4   75 1    
     9    5    6 1    
    10    5   35 1    
    11    5   76 1    
    12    6    7 1    
    13    6   77 1    
    14    6   78 1    
    15    7    8 1    
    16    8    9 1    
    17    8   79 1    
    18    8   80 1    
    19    9   10 ar   
    20    9   14 ar   
    21   10   11 ar   
    22   10   81 1    
    23   11   12 ar   
    24   11   71 1    
    25   12   13 ar   
    26   12   82 1    
    27   13   14 ar   
    28   13   15 1    
    29   14   83 1    
    30   15   16 1    
    31   15   84 1    
    32   15   85 1    
    33   16   17 1    
    34   17   18 1    
    35   17   86 1    
    36   17   87 1    
    37   18   19 1    
    38   18   37 1    
    39   18   88 1    
    40   19   20 am   BACKBONE|DICT|INTERRES
    41   19   89 1    
    42   20   21 2    
    43   20   22 1    
    44   22   23 1    
    45   22   24 1    
    46   22   90 1    
    47   23   91 1    
    48   23   92 1    
    49   23   93 1    
    50   24   25 am   BACKBONE|DICT|INTERRES
    51   24   94 1    
    52   25   26 2    
    53   25   27 1    
    54   27   28 1    
    55   27   29 1    
    56   27   95 1    
    57   28   96 1    
    58   28   97 1    
    59   28   98 1    
    60   29   30 am   BACKBONE|DICT|INTERRES
    61   29   99 1    
    62   30   31 2    
    63   30   32 1    
    64   32   33 1    
    65   32   34 1    
    66   32  100 1    
    67   33  101 1    
    68   33  102 1    
    69   33  103 1    
    70   34   35 am   BACKBONE|DICT|INTERRES
    71   34  104 1    
    72   35   36 2    
    73   37   38 2    
    74   37   39 am   BACKBONE|DICT|INTERRES
    75   39   40 1    
    76   39  105 1    
    77   40   41 1    
    78   40   42 1    
    79   40  106 1    
    80   41  107 1    
    81   41  108 1    
    82   41  109 1    
    83   42   43 2    
    84   42   44 am   BACKBONE|DICT|INTERRES
    85   44   45 1    
    86   44  110 1    
    87   45   46 1    
    88   45   47 1    
    89   45  111 1    
    90   46  112 1    
    91   46  113 1    
    92   46  114 1    
    93   47   48 2    
    94   47   49 am   BACKBONE|DICT|INTERRES
    95   49   50 1    
    96   49  115 1    
    97   50   51 1    
    98   50   52 1    
    99   50  116 1    
   100   51  117 1    
   101   51  118 1    
   102   51  119 1    
   103   52   53 2    
   104   52   54 am   BACKBONE|DICT|INTERRES
   105   54   55 1    
   106   54  120 1    
   107   55   56 1    
   108   55   57 1    
   109   55  121 1    
   110   56  122 1    
   111   56  123 1    
   112   56  124 1    
   113   57   58 2    
   114   57   59 am   BACKBONE|DICT|INTERRES
   115   59   60 1    
   116   59  125 1    
   117   60   61 1    
   118   60   62 1    
   119   60  126 1    
   120   61  127 1    
   121   61  128 1    
   122   61  129 1    
   123   62   63 2    
   124   62   64 am   BACKBONE|DICT|INTERRES
   125   64   65 1    
   126   64  130 1    
   127   65   66 1    
   128   65   69 1    
   129   65  131 1    
   130   66   67 am   BACKBONE|DICT|INTERRES
   131   66   68 2    
   132   67  132 1    
   133   67  133 1    
   134   69   70 1    
   135   69  134 1    
   136   69  135 1    
   137   70   71 1    
   138   71  136 1    
   139   71  137 1    
@<TRIPOS>SUBSTRUCTURE
     1 UNK         1 GROUP             0       ****    0 ROOT    
