@<TRIPOS>MOLECULE
3R136
137   139    1
SMALL
USER_CHARGES


@<TRIPOS>ATOM
      1 CA         26.5592   21.8389    0.1746 C.3       0 UNK        -0.1979 
      2 C          26.9168   23.2716    0.5354 C.2       0 UNK         0.4864 
      3 O          26.7570   24.1650   -0.2995 O.2       0 UNK        -0.5359 
      4 N          27.3999   23.4981    1.7655 N.am      1 UNK        -0.4318 
      5 CA         27.7762   24.8122    2.3033 C.3       1 UNK         0.0824 
      6 C6         28.3650   24.7282    3.7328 C.3       12 UNK        -0.0944 
      7 S7         29.7315   23.5293    3.8880 S.3       12 UNK        -0.2672 
      8 C8         31.1655   24.6054    4.2388 C.3       12 UNK         0.0333 
      9 C9         31.8943   25.1657    3.0164 C.ar      12 UNK        -0.0807 
     10 C10        32.6946   26.3030    3.1774 C.ar      12 UNK        -0.0894 
     11 C11        33.4613   26.7958    2.1180 C.ar      12 UNK        -0.0804 
     12 C12        33.4120   26.1550    0.8780 C.ar      12 UNK        -0.0824 
     13 C13        32.6045   25.0304    0.6922 C.ar      12 UNK        -0.0762 
     14 C14        31.8523   24.5377    1.7634 C.ar      12 UNK        -0.0782 
     15 C15        32.5832   24.3276   -0.6576 C.3       12 UNK         0.0230 
     16 S16        31.7597   25.3275   -1.9353 S.3       12 UNK        -0.2608 
     17 C17        30.0090   25.1365   -1.4647 C.3       12 UNK        -0.0989 
     18 CA         29.1018   26.1929   -2.1527 C.3       5 UNK         0.0716 
     19 N          27.7732   25.6396   -2.4060 N.am      5 UNK        -0.4135 
     20 C          27.0048   25.9129   -3.4662 C.2       4 UNK         0.5031 
     21 O          27.3592   26.6164   -4.4138 O.2       4 UNK        -0.5229 
     22 CA         25.5985   25.3011   -3.4711 C.3       4 UNK         0.0329 
     23 CB         25.6476   23.8128   -3.8576 C.3       4 UNK        -0.2001 
     24 N          24.9562   25.4468   -2.1636 N.am      4 UNK        -0.4303 
     25 C          23.7199   25.9197   -1.9663 C.2       3 UNK         0.5044 
     26 O          22.9627   26.2762   -2.8704 O.2       3 UNK        -0.5152 
     27 CA         23.2358   26.0022   -0.5098 C.3       3 UNK         0.0319 
     28 CB         22.7468   24.6272   -0.0261 C.3       3 UNK        -0.2001 
     29 N          24.2563   26.4997    0.4126 N.am      3 UNK        -0.4354 
     30 C          24.7470   27.7454    0.4459 C.2       2 UNK         0.4964 
     31 O          24.3760   28.6404   -0.3142 O.2       2 UNK        -0.5047 
     32 CA         25.8105   28.0686    1.5176 C.3       2 UNK         0.0288 
     33 CB         25.1414   28.5599    2.8172 C.3       2 UNK        -0.2113 
     34 N          26.7805   26.9928    1.7827 N.am      2 UNK        -0.4145 
     35 C          26.5700   25.7718    2.2888 C.2       1 UNK         0.5006 
     36 O          25.4773   25.3738    2.7016 O.2       1 UNK        -0.5103 
     37 C          28.9860   27.4994   -1.3370 C.2       5 UNK         0.5055 
     38 O          27.8810   27.9910   -1.0925 O.2       5 UNK        -0.5220 
     39 N          30.1352   28.0329   -0.9049 N.am      6 UNK        -0.4450 
     40 CA         30.2322   29.1464    0.0429 C.3       6 UNK         0.0367 
     41 CB         31.6880   29.6354    0.0909 C.3       6 UNK        -0.1929 
     42 C          29.7382   28.7451    1.4458 C.2       6 UNK         0.5070 
     43 O          29.5923   27.5560    1.7361 O.2       6 UNK        -0.5237 
     44 N          29.4501   29.7432    2.2871 N.am      7 UNK        -0.4739 
     45 CA         28.9922   29.5392    3.6630 C.3       7 UNK         0.0276 
     46 CB         28.3848   30.8508    4.1865 C.3       7 UNK        -0.1927 
     47 C          30.1302   29.0713    4.5831 C.2       7 UNK         0.5013 
     48 O          31.2838   29.4458    4.3702 O.2       7 UNK        -0.5193 
     49 N          29.7732   28.3314    5.6421 N.am      8 UNK        -0.4253 
     50 CA         30.6963   27.8186    6.6651 C.3       8 UNK         0.0242 
     51 CB         29.9378   26.8420    7.5793 C.3       8 UNK        -0.2000 
     52 C          31.4123   28.9029    7.4958 C.2       8 UNK         0.4948 
     53 O          32.4095   28.5964    8.1496 O.2       8 UNK        -0.5275 
     54 N          30.9075   30.1436    7.4516 N.am      9 UNK        -0.4246 
     55 CA         31.5550   31.3306    8.0107 C.3       9 UNK         0.0261 
     56 CB         30.5110   32.4521    8.1425 C.3       9 UNK        -0.1959 
     57 C          32.7608   31.8147    7.1796 C.2       9 UNK         0.5033 
     58 O          33.5960   32.5424    7.7197 O.2       9 UNK        -0.5390 
     59 N          32.8326   31.4301    5.8971 N.am      10 UNK        -0.4215 
     60 CA         33.9361   31.7445    4.9911 C.3       10 UNK         0.0240 
     61 CB         33.3613   32.0075    3.5864 C.3       10 UNK        -0.1982 
     62 C          34.9497   30.5892    4.9571 C.2       10 UNK         0.4970 
     63 O          34.6662   29.5010    5.4599 O.2       10 UNK        -0.4916 
     64 N          36.1075   30.8650    4.3444 N.am      11 UNK        -0.4279 
     65 CA         37.2225   29.9454    4.0497 C.3       11 UNK         0.1003 
     66 C          37.9070   29.2323    5.2577 C.2       11 UNK         0.5709 
     67 N          37.6233   29.6062    6.4990 N.am      11 UNK        -0.7358 
     68 O          38.7562   28.3643    5.0671 O.2       11 UNK        -0.4999 
     69 C69        36.9493   29.0314    2.8161 C.3       12 UNK        -0.0954 
     70 S70        35.9277   27.5425    3.1011 S.3       12 UNK        -0.2268 
     71 C71        34.3551   28.0105    2.3143 C.3       12 UNK         0.0203 
     72 H72        27.1460   21.5125   -0.6835 H         1 UNK         0.0888 
     73 H73        26.7486   21.1513    0.9985 H         1 UNK         0.0888 
     74 H74        25.5040   21.7729   -0.0888 H         1 UNK         0.0888 
     75 H75        27.5058   22.7271    2.4089 H         1 UNK         0.3017 
     76 H76        28.5474   25.2075    1.6408 H         1 UNK         0.0873 
     77 H77        27.5937   24.4343    4.4480 H         1 UNK         0.0745 
     78 H78        28.7101   25.7142    4.0498 H         1 UNK         0.0745 
     79 H79        31.8858   24.0227    4.8141 H         1 UNK         0.0705 
     80 H80        30.8457   25.4174    4.8903 H         1 UNK         0.0705 
     81 H81        32.7481   26.7973    4.1378 H         1 UNK         0.1334 
     82 H82        34.0073   26.5269    0.0551 H         1 UNK         0.1417 
     83 H83        31.2544   23.6491    1.6204 H         1 UNK         0.1562 
     84 H84        32.0962   23.3536   -0.5884 H         1 UNK         0.0748 
     85 H85        33.6095   24.1328   -0.9724 H         1 UNK         0.0748 
     86 H86        29.9004   25.1592   -0.3785 H         1 UNK         0.0940 
     87 H87        29.7163   24.1292   -1.7671 H         1 UNK         0.0940 
     88 H88        29.5449   26.4601   -3.1146 H         1 UNK         0.0703 
     89 H89        27.3879   25.0733   -1.6515 H         1 UNK         0.3081 
     90 H90        25.0254   25.8324   -4.2339 H         1 UNK         0.0719 
     91 H91        26.1424   23.6744   -4.8199 H         1 UNK         0.0809 
     92 H92        26.1912   23.2205   -3.1201 H         1 UNK         0.0809 
     93 H93        24.6443   23.3959   -3.9457 H         1 UNK         0.0809 
     94 H94        25.5021   25.1630   -1.3546 H         1 UNK         0.2990 
     95 H95        22.3922   26.6949   -0.4786 H         1 UNK         0.0690 
     96 H96        22.3183   24.6886    0.9745 H         1 UNK         0.0788 
     97 H97        23.5569   23.8969    0.0012 H         1 UNK         0.0788 
     98 H98        21.9728   24.2331   -0.6862 H         1 UNK         0.0788 
     99 H99        24.5958   25.8538    1.1203 H         1 UNK         0.2993 
    100 H100       26.4009   28.8959    1.1196 H         1 UNK         0.0949 
    101 H101       24.5137   27.7916    3.2694 H         1 UNK         0.0767 
    102 H102       25.8772   28.8688    3.5579 H         1 UNK         0.0767 
    103 H103       24.5024   29.4218    2.6205 H         1 UNK         0.0767 
    104 H104       27.7332   27.2039    1.4930 H         1 UNK         0.3013 
    105 H105       30.9893   27.5285   -1.1015 H         1 UNK         0.3121 
    106 H106       29.5995   29.9596   -0.3191 H         1 UNK         0.0774 
    107 H107       31.8091   30.4603    0.7942 H         1 UNK         0.0815 
    108 H108       32.3618   28.8401    0.4031 H         1 UNK         0.0815 
    109 H109       32.0194   29.9912   -0.8847 H         1 UNK         0.0815 
    110 H110       29.6228   30.6960    2.0015 H         1 UNK         0.2987 
    111 H111       28.2189   28.7692    3.6575 H         1 UNK         0.0949 
    112 H112       27.5593   31.1835    3.5567 H         1 UNK         0.0806 
    113 H113       27.9875   30.7276    5.1948 H         1 UNK         0.0806 
    114 H114       29.1239   31.6526    4.2221 H         1 UNK         0.0806 
    115 H115       28.7982   28.0990    5.7666 H         1 UNK         0.3010 
    116 H116       31.4836   27.2657    6.1506 H         1 UNK         0.0829 
    117 H117       29.5104   26.0142    7.0129 H         1 UNK         0.0813 
    118 H118       30.6044   26.4084    8.3264 H         1 UNK         0.0813 
    119 H119       29.1277   27.3379    8.1154 H         1 UNK         0.0813 
    120 H120       30.0687   30.2951    6.9120 H         1 UNK         0.3038 
    121 H121       31.9222   31.0853    9.0096 H         1 UNK         0.0769 
    122 H122       30.9527   33.3453    8.5868 H         1 UNK         0.0811 
    123 H123       29.6822   32.1507    8.7833 H         1 UNK         0.0811 
    124 H124       30.1011   32.7397    7.1734 H         1 UNK         0.0811 
    125 H125       32.1702   30.7449    5.5433 H         1 UNK         0.3204 
    126 H126       34.4502   32.6468    5.3291 H         1 UNK         0.0748 
    127 H127       34.1378   32.3366    2.8950 H         1 UNK         0.0771 
    128 H128       32.9068   31.1132    3.1592 H         1 UNK         0.0771 
    129 H129       32.6008   32.7882    3.6097 H         1 UNK         0.0771 
    130 H130       36.2440   31.8057    4.0042 H         1 UNK         0.2980 
    131 H131       38.0046   30.6299    3.7194 H         1 UNK         0.0545 
    132 H132       36.9156   30.3017    6.6711 H         1 UNK         0.3459 
    133 H133       38.0861   29.1515    7.2699 H         1 UNK         0.3459 
    134 H134       37.9026   28.6801    2.4178 H         1 UNK         0.0616 
    135 H135       36.5117   29.6231    2.0111 H         1 UNK         0.0616 
    136 H136       34.5581   28.4854    1.3537 H         1 UNK         0.0634 
    137 H137       33.8399   28.7516    2.9258 H         1 UNK         0.0634 
@<TRIPOS>BOND
     1    1    2 1    
     2    1   72 1    
     3    1   73 1    
     4    1   74 1    
     5    2    3 2    
     6    2    4 am   BACKBONE|DICT|INTERRES
     7    4    5 1    
     8    4   75 1    
     9    5    6 1    
    10    5   35 1    
    11    5   76 1    
    12    6    7 1    
    13    6   77 1    
    14    6   78 1    
    15    7    8 1    
    16    8    9 1    
    17    8   79 1    
    18    8   80 1    
    19    9   10 ar   
    20    9   14 ar   
    21   10   11 ar   
    22   10   81 1    
    23   11   12 ar   
    24   11   71 1    
    25   12   13 ar   
    26   12   82 1    
    27   13   14 ar   
    28   13   15 1    
    29   14   83 1    
    30   15   16 1    
    31   15   84 1    
    32   15   85 1    
    33   16   17 1    
    34   17   18 1    
    35   17   86 1    
    36   17   87 1    
    37   18   19 1    
    38   18   37 1    
    39   18   88 1    
    40   19   20 am   BACKBONE|DICT|INTERRES
    41   19   89 1    
    42   20   21 2    
    43   20   22 1    
    44   22   23 1    
    45   22   24 1    
    46   22   90 1    
    47   23   91 1    
    48   23   92 1    
    49   23   93 1    
    50   24   25 am   BACKBONE|DICT|INTERRES
    51   24   94 1    
    52   25   26 2    
    53   25   27 1    
    54   27   28 1    
    55   27   29 1    
    56   27   95 1    
    57   28   96 1    
    58   28   97 1    
    59   28   98 1    
    60   29   30 am   BACKBONE|DICT|INTERRES
    61   29   99 1    
    62   30   31 2    
    63   30   32 1    
    64   32   33 1    
    65   32   34 1    
    66   32  100 1    
    67   33  101 1    
    68   33  102 1    
    69   33  103 1    
    70   34   35 am   BACKBONE|DICT|INTERRES
    71   34  104 1    
    72   35   36 2    
    73   37   38 2    
    74   37   39 am   BACKBONE|DICT|INTERRES
    75   39   40 1    
    76   39  105 1    
    77   40   41 1    
    78   40   42 1    
    79   40  106 1    
    80   41  107 1    
    81   41  108 1    
    82   41  109 1    
    83   42   43 2    
    84   42   44 am   BACKBONE|DICT|INTERRES
    85   44   45 1    
    86   44  110 1    
    87   45   46 1    
    88   45   47 1    
    89   45  111 1    
    90   46  112 1    
    91   46  113 1    
    92   46  114 1    
    93   47   48 2    
    94   47   49 am   BACKBONE|DICT|INTERRES
    95   49   50 1    
    96   49  115 1    
    97   50   51 1    
    98   50   52 1    
    99   50  116 1    
   100   51  117 1    
   101   51  118 1    
   102   51  119 1    
   103   52   53 2    
   104   52   54 am   BACKBONE|DICT|INTERRES
   105   54   55 1    
   106   54  120 1    
   107   55   56 1    
   108   55   57 1    
   109   55  121 1    
   110   56  122 1    
   111   56  123 1    
   112   56  124 1    
   113   57   58 2    
   114   57   59 am   BACKBONE|DICT|INTERRES
   115   59   60 1    
   116   59  125 1    
   117   60   61 1    
   118   60   62 1    
   119   60  126 1    
   120   61  127 1    
   121   61  128 1    
   122   61  129 1    
   123   62   63 2    
   124   62   64 am   BACKBONE|DICT|INTERRES
   125   64   65 1    
   126   64  130 1    
   127   65   66 1    
   128   65   69 1    
   129   65  131 1    
   130   66   67 am   BACKBONE|DICT|INTERRES
   131   66   68 2    
   132   67  132 1    
   133   67  133 1    
   134   69   70 1    
   135   69  134 1    
   136   69  135 1    
   137   70   71 1    
   138   71  136 1    
   139   71  137 1    
@<TRIPOS>SUBSTRUCTURE
     1 UNK         1 GROUP             0       ****    0 ROOT    
