@<TRIPOS>MOLECULE
3R136
137   139    1
SMALL
USER_CHARGES


@<TRIPOS>ATOM
      1 CA         27.3962   21.4424    1.1304 C.3       0 UNK        -0.1979 
      2 C          28.3832   22.2710    0.3226 C.2       0 UNK         0.4864 
      3 O          28.4996   22.0749   -0.8882 O.2       0 UNK        -0.5359 
      4 N          29.0850   23.2038    0.9804 N.am      1 UNK        -0.4318 
      5 CA         30.0449   24.1391    0.3849 C.3       1 UNK         0.0824 
      6 C6         30.7824   24.9621    1.4682 C.3       12 UNK        -0.0944 
      7 S7         32.1013   23.9989    2.2844 S.3       12 UNK        -0.2672 
      8 C8         31.2482   23.1502    3.6507 C.3       12 UNK         0.0333 
      9 C9         30.6482   24.1154    4.6616 C.ar      12 UNK        -0.0807 
     10 C10        31.4719   24.7683    5.5846 C.ar      12 UNK        -0.0894 
     11 C11        30.9219   25.6222    6.5451 C.ar      12 UNK        -0.0804 
     12 C12        29.5381   25.8262    6.5707 C.ar      12 UNK        -0.0824 
     13 C13        28.7046   25.1785    5.6523 C.ar      12 UNK        -0.0762 
     14 C14        29.2657   24.3239    4.7013 C.ar      12 UNK        -0.0782 
     15 C15        27.1966   25.3742    5.7149 C.3       12 UNK         0.0230 
     16 S16        26.7212   27.0222    5.1128 S.3       12 UNK        -0.2608 
     17 C17        25.7751   26.6870    3.5818 C.3       12 UNK        -0.0989 
     18 CA         26.5728   26.8940    2.2583 C.3       5 UNK         0.0716 
     19 N          25.8141   26.5689    1.0434 N.am      5 UNK        -0.4135 
     20 C          24.6486   27.1130    0.6561 C.2       4 UNK         0.5031 
     21 O          23.9832   27.8807    1.3516 O.2       4 UNK        -0.5229 
     22 CA         24.1231   26.7875   -0.7548 C.3       4 UNK         0.0329 
     23 CB         24.1234   28.0543   -1.6283 C.3       4 UNK        -0.2001 
     24 N          24.8637   25.7458   -1.4647 N.am      4 UNK        -0.4303 
     25 C          24.7729   24.4275   -1.2633 C.2       3 UNK         0.5044 
     26 O          24.0890   23.9189   -0.3754 O.2       3 UNK        -0.5152 
     27 CA         25.5838   23.5183   -2.2086 C.3       3 UNK         0.0319 
     28 CB         24.8122   23.2476   -3.5145 C.3       3 UNK        -0.2001 
     29 N          26.9551   23.9805   -2.4757 N.am      3 UNK        -0.4354 
     30 C          27.3741   25.0907   -3.1076 C.2       2 UNK         0.4964 
     31 O          26.6122   25.8905   -3.6536 O.2       2 UNK        -0.5047 
     32 CA         28.8898   25.3844   -3.0833 C.3       2 UNK         0.0288 
     33 CB         29.1961   26.8926   -3.1977 C.3       2 UNK        -0.2113 
     34 N          29.5722   24.8032   -1.9191 N.am      2 UNK        -0.4145 
     35 C          29.3269   25.0547   -0.6235 C.2       1 UNK         0.5006 
     36 O          28.5351   25.9072   -0.2107 O.2       1 UNK        -0.5103 
     37 C          27.2060   28.2910    2.0881 C.2       5 UNK         0.5055 
     38 O          26.8095   29.2557    2.7463 O.2       5 UNK        -0.5220 
     39 N          28.1991   28.3757    1.1930 N.am      6 UNK        -0.4450 
     40 CA         29.0407   29.5569    0.9718 C.3       6 UNK         0.0367 
     41 CB         29.6610   29.4761   -0.4346 C.3       6 UNK        -0.1929 
     42 C          30.1049   29.7105    2.0785 C.2       6 UNK         0.5070 
     43 O          31.2989   29.7853    1.7834 O.2       6 UNK        -0.5237 
     44 N          29.6530   29.7265    3.3404 N.am      7 UNK        -0.4739 
     45 CA         30.4794   29.7390    4.5494 C.3       7 UNK         0.0276 
     46 CB         29.5796   29.6919    5.7936 C.3       7 UNK        -0.1927 
     47 C          31.4399   30.9320    4.6166 C.2       7 UNK         0.5013 
     48 O          32.6322   30.7356    4.8585 O.2       7 UNK        -0.5193 
     49 N          30.9325   32.1336    4.3062 N.am      8 UNK        -0.4253 
     50 CA         31.6773   33.3992    4.2297 C.3       8 UNK         0.0242 
     51 CB         30.6769   34.5682    4.3024 C.3       8 UNK        -0.2000 
     52 C          32.6131   33.4973    3.0013 C.2       8 UNK         0.4948 
     53 O          32.7087   34.5541    2.3745 O.2       8 UNK        -0.5275 
     54 N          33.2858   32.3884    2.6908 N.am      9 UNK        -0.4246 
     55 CA         34.2472   32.1788    1.6175 C.3       9 UNK         0.0261 
     56 CB         33.5739   32.2432    0.2316 C.3       9 UNK        -0.1959 
     57 C          34.9286   30.8232    1.8365 C.2       9 UNK         0.5033 
     58 O          36.1584   30.7588    1.8300 O.2       9 UNK        -0.5390 
     59 N          34.1234   29.7681    2.0336 N.am      10 UNK        -0.4215 
     60 CA         34.5954   28.3905    2.1753 C.3       10 UNK         0.0240 
     61 CB         33.4454   27.4250    1.8605 C.3       10 UNK        -0.1982 
     62 C          35.2019   28.0552    3.5476 C.2       10 UNK         0.4970 
     63 O          36.0842   27.1962    3.5948 O.2       10 UNK        -0.4916 
     64 N          34.7307   28.6949    4.6270 N.am      11 UNK        -0.4279 
     65 CA         35.1670   28.3995    6.0031 C.3       11 UNK         0.1003 
     66 C          35.3853   29.6484    6.9016 C.2       11 UNK         0.5709 
     67 N          34.8276   30.8097    6.5855 N.am      11 UNK        -0.7358 
     68 O          36.1060   29.5681    7.8940 O.2       11 UNK        -0.4999 
     69 C69        34.2835   27.3122    6.6754 C.3       12 UNK        -0.0954 
     70 S70        32.5541   27.8272    6.9506 S.3       12 UNK        -0.2268 
     71 C71        31.8122   26.2924    7.5821 C.3       12 UNK         0.0203 
     72 H72        26.3799   21.6281    0.7832 H         1 UNK         0.0888 
     73 H73        27.6100   20.3810    1.0076 H         1 UNK         0.0888 
     74 H74        27.4396   21.6754    2.1941 H         1 UNK         0.0888 
     75 H75        28.9260   23.3256    1.9667 H         1 UNK         0.3017 
     76 H76        30.7856   23.5504   -0.1613 H         1 UNK         0.0873 
     77 H77        30.0910   25.3764    2.2031 H         1 UNK         0.0745 
     78 H78        31.2731   25.8245    1.0145 H         1 UNK         0.0745 
     79 H79        30.4892   22.4780    3.2503 H         1 UNK         0.0705 
     80 H80        31.9696   22.5087    4.1589 H         1 UNK         0.0705 
     81 H81        32.5402   24.6022    5.5616 H         1 UNK         0.1334 
     82 H82        29.1048   26.4826    7.3131 H         1 UNK         0.1417 
     83 H83        28.6198   23.8086    4.0058 H         1 UNK         0.1562 
     84 H84        26.8660   25.2729    6.7497 H         1 UNK         0.0748 
     85 H85        26.6781   24.5936    5.1570 H         1 UNK         0.0748 
     86 H86        24.9097   27.3489    3.6131 H         1 UNK         0.0940 
     87 H87        25.3679   25.6760    3.6145 H         1 UNK         0.0940 
     88 H88        27.4023   26.1853    2.2875 H         1 UNK         0.0703 
     89 H89        26.3106   25.9996    0.3703 H         1 UNK         0.3081 
     90 H90        23.0902   26.4516   -0.6415 H         1 UNK         0.0719 
     91 H91        23.5406   28.8526   -1.1665 H         1 UNK         0.0809 
     92 H92        25.1340   28.4353   -1.7832 H         1 UNK         0.0809 
     93 H93        23.6842   27.8617   -2.6073 H         1 UNK         0.0809 
     94 H94        25.4515   26.0466   -2.2395 H         1 UNK         0.2990 
     95 H95        25.6968   22.5621   -1.6953 H         1 UNK         0.0690 
     96 H96        25.3514   22.5496   -4.1550 H         1 UNK         0.0788 
     97 H97        24.6372   24.1599   -4.0854 H         1 UNK         0.0788 
     98 H98        23.8367   22.8071   -3.3042 H         1 UNK         0.0788 
     99 H99        27.6689   23.3961   -2.0464 H         1 UNK         0.2993 
    100 H100       29.3067   24.8920   -3.9631 H         1 UNK         0.0949 
    101 H101       28.6946   27.4608   -2.4151 H         1 UNK         0.0767 
    102 H102       30.2655   27.0911   -3.1278 H         1 UNK         0.0767 
    103 H103       28.8544   27.2898   -4.1543 H         1 UNK         0.0767 
    104 H104       30.2146   24.0525   -2.1348 H         1 UNK         0.3013 
    105 H105       28.4448   27.5360    0.6715 H         1 UNK         0.3121 
    106 H106       28.4137   30.4502    1.0060 H         1 UNK         0.0774 
    107 H107       30.2690   28.5787   -0.5567 H         1 UNK         0.0815 
    108 H108       28.8893   29.4722   -1.2036 H         1 UNK         0.0815 
    109 H109       30.3029   30.3359   -0.6312 H         1 UNK         0.0815 
    110 H110       28.6484   29.6548    3.4707 H         1 UNK         0.2987 
    111 H111       31.0879   28.8324    4.5328 H         1 UNK         0.0949 
    112 H112       29.0184   28.7594    5.8354 H         1 UNK         0.0806 
    113 H113       30.1705   29.7496    6.7087 H         1 UNK         0.0806 
    114 H114       28.8654   30.5157    5.8128 H         1 UNK         0.0806 
    115 H115       29.9548   32.1747    4.0577 H         1 UNK         0.3010 
    116 H116       32.3200   33.4601    5.1106 H         1 UNK         0.0829 
    117 H117       30.0137   34.5842    3.4366 H         1 UNK         0.0813 
    118 H118       31.1948   35.5278    4.3349 H         1 UNK         0.0813 
    119 H119       30.0596   34.5086    5.1989 H         1 UNK         0.0813 
    120 H120       33.1611   31.6033    3.3249 H         1 UNK         0.3038 
    121 H121       35.0087   32.9587    1.6810 H         1 UNK         0.0769 
    122 H122       33.1788   33.2375    0.0245 H         1 UNK         0.0811 
    123 H123       32.7496   31.5339    0.1479 H         1 UNK         0.0811 
    124 H124       34.2879   32.0108   -0.5595 H         1 UNK         0.0811 
    125 H125       33.1115   29.8898    1.9727 H         1 UNK         0.3204 
    126 H126       35.3753   28.2274    1.4280 H         1 UNK         0.0748 
    127 H127       32.6421   27.4973    2.5954 H         1 UNK         0.0771 
    128 H128       33.0201   27.6202    0.8758 H         1 UNK         0.0771 
    129 H129       33.7991   26.3938    1.8628 H         1 UNK         0.0771 
    130 H130       33.9955   29.3868    4.5335 H         1 UNK         0.2980 
    131 H131       36.1700   27.9731    5.9420 H         1 UNK         0.0545 
    132 H132       34.1219   30.8617    5.8571 H         1 UNK         0.3459 
    133 H133       34.9981   31.6080    7.1749 H         1 UNK         0.3459 
    134 H134       34.7128   27.0185    7.6349 H         1 UNK         0.0616 
    135 H135       34.2806   26.4110    6.0605 H         1 UNK         0.0616 
    136 H136       32.5905   25.6019    7.9101 H         1 UNK         0.0634 
    137 H137       31.2307   26.5330    8.4732 H         1 UNK         0.0634 
@<TRIPOS>BOND
     1    1    2 1    
     2    1   72 1    
     3    1   73 1    
     4    1   74 1    
     5    2    3 2    
     6    2    4 am   BACKBONE|DICT|INTERRES
     7    4    5 1    
     8    4   75 1    
     9    5    6 1    
    10    5   35 1    
    11    5   76 1    
    12    6    7 1    
    13    6   77 1    
    14    6   78 1    
    15    7    8 1    
    16    8    9 1    
    17    8   79 1    
    18    8   80 1    
    19    9   10 ar   
    20    9   14 ar   
    21   10   11 ar   
    22   10   81 1    
    23   11   12 ar   
    24   11   71 1    
    25   12   13 ar   
    26   12   82 1    
    27   13   14 ar   
    28   13   15 1    
    29   14   83 1    
    30   15   16 1    
    31   15   84 1    
    32   15   85 1    
    33   16   17 1    
    34   17   18 1    
    35   17   86 1    
    36   17   87 1    
    37   18   19 1    
    38   18   37 1    
    39   18   88 1    
    40   19   20 am   BACKBONE|DICT|INTERRES
    41   19   89 1    
    42   20   21 2    
    43   20   22 1    
    44   22   23 1    
    45   22   24 1    
    46   22   90 1    
    47   23   91 1    
    48   23   92 1    
    49   23   93 1    
    50   24   25 am   BACKBONE|DICT|INTERRES
    51   24   94 1    
    52   25   26 2    
    53   25   27 1    
    54   27   28 1    
    55   27   29 1    
    56   27   95 1    
    57   28   96 1    
    58   28   97 1    
    59   28   98 1    
    60   29   30 am   BACKBONE|DICT|INTERRES
    61   29   99 1    
    62   30   31 2    
    63   30   32 1    
    64   32   33 1    
    65   32   34 1    
    66   32  100 1    
    67   33  101 1    
    68   33  102 1    
    69   33  103 1    
    70   34   35 am   BACKBONE|DICT|INTERRES
    71   34  104 1    
    72   35   36 2    
    73   37   38 2    
    74   37   39 am   BACKBONE|DICT|INTERRES
    75   39   40 1    
    76   39  105 1    
    77   40   41 1    
    78   40   42 1    
    79   40  106 1    
    80   41  107 1    
    81   41  108 1    
    82   41  109 1    
    83   42   43 2    
    84   42   44 am   BACKBONE|DICT|INTERRES
    85   44   45 1    
    86   44  110 1    
    87   45   46 1    
    88   45   47 1    
    89   45  111 1    
    90   46  112 1    
    91   46  113 1    
    92   46  114 1    
    93   47   48 2    
    94   47   49 am   BACKBONE|DICT|INTERRES
    95   49   50 1    
    96   49  115 1    
    97   50   51 1    
    98   50   52 1    
    99   50  116 1    
   100   51  117 1    
   101   51  118 1    
   102   51  119 1    
   103   52   53 2    
   104   52   54 am   BACKBONE|DICT|INTERRES
   105   54   55 1    
   106   54  120 1    
   107   55   56 1    
   108   55   57 1    
   109   55  121 1    
   110   56  122 1    
   111   56  123 1    
   112   56  124 1    
   113   57   58 2    
   114   57   59 am   BACKBONE|DICT|INTERRES
   115   59   60 1    
   116   59  125 1    
   117   60   61 1    
   118   60   62 1    
   119   60  126 1    
   120   61  127 1    
   121   61  128 1    
   122   61  129 1    
   123   62   63 2    
   124   62   64 am   BACKBONE|DICT|INTERRES
   125   64   65 1    
   126   64  130 1    
   127   65   66 1    
   128   65   69 1    
   129   65  131 1    
   130   66   67 am   BACKBONE|DICT|INTERRES
   131   66   68 2    
   132   67  132 1    
   133   67  133 1    
   134   69   70 1    
   135   69  134 1    
   136   69  135 1    
   137   70   71 1    
   138   71  136 1    
   139   71  137 1    
@<TRIPOS>SUBSTRUCTURE
     1 UNK         1 GROUP             0       ****    0 ROOT    
