@<TRIPOS>MOLECULE
3R136
137   139    1
SMALL
USER_CHARGES


@<TRIPOS>ATOM
      1 CA         28.0031   24.2067    5.9031 C.3       0 UNK        -0.1979 
      2 C          27.3282   23.2664    4.9154 C.2       0 UNK         0.4864 
      3 O          26.2612   22.7284    5.2129 O.2       0 UNK        -0.5359 
      4 N          27.9472   23.0612    3.7451 N.am      1 UNK        -0.4318 
      5 CA         27.4526   22.1992    2.6637 C.3       1 UNK         0.0824 
      6 C6         28.5530   21.9152    1.6062 C.3       12 UNK        -0.0944 
      7 S7         29.2868   23.4328    0.8944 S.3       12 UNK        -0.2672 
      8 C8         30.9775   23.3793    1.5731 C.3       12 UNK         0.0333 
      9 C9         31.6028   24.7663    1.6038 C.ar      12 UNK        -0.0807 
     10 C10        31.9416   25.3636    2.8226 C.ar      12 UNK        -0.0894 
     11 C11        32.4974   26.6461    2.8544 C.ar      12 UNK        -0.0804 
     12 C12        32.7030   27.3375    1.6565 C.ar      12 UNK        -0.0824 
     13 C13        32.3666   26.7515    0.4330 C.ar      12 UNK        -0.0762 
     14 C14        31.8335   25.4595    0.4122 C.ar      12 UNK        -0.0782 
     15 C15        32.5803   27.5166   -0.8643 C.3       12 UNK         0.0230 
     16 S16        31.2769   28.7586   -1.1421 S.3       12 UNK        -0.2608 
     17 C17        29.8420   27.7126   -1.5705 C.3       12 UNK        -0.0989 
     18 CA         28.4918   28.3295   -1.1077 C.3       5 UNK         0.0716 
     19 N          27.3604   27.8399   -1.8835 N.am      5 UNK        -0.4135 
     20 C          27.0839   28.0719   -3.1695 C.2       4 UNK         0.5031 
     21 O          27.7468   28.8205   -3.8900 O.2       4 UNK        -0.5229 
     22 CA         25.8602   27.3199   -3.7383 C.3       4 UNK         0.0329 
     23 CB         25.8745   27.2296   -5.2792 C.3       4 UNK        -0.2001 
     24 N          25.6797   25.9882   -3.1371 N.am      4 UNK        -0.4303 
     25 C          26.5531   24.9687   -3.1415 C.2       3 UNK         0.5044 
     26 O          27.6382   24.9922   -3.7251 O.2       3 UNK        -0.5152 
     27 CA         26.1559   23.7373   -2.3069 C.3       3 UNK         0.0319 
     28 CB         27.1589   22.5762   -2.4450 C.3       3 UNK        -0.2001 
     29 N          26.0286   24.0725   -0.8869 N.am      3 UNK        -0.4354 
     30 C          24.9586   24.6344   -0.3057 C.2       2 UNK         0.4964 
     31 O          23.9710   25.0050   -0.9433 O.2       2 UNK        -0.5047 
     32 CA         24.9973   24.8401    1.2253 C.3       2 UNK         0.0288 
     33 CB         23.6211   24.6025    1.8829 C.3       2 UNK        -0.2113 
     34 N          26.0480   24.0711    1.9092 N.am      2 UNK        -0.4145 
     35 C          26.1689   22.7352    1.9927 C.2       1 UNK         0.5006 
     36 O          25.3487   21.9351    1.5401 O.2       1 UNK        -0.5103 
     37 C          28.1593   28.0543    0.3737 C.2       5 UNK         0.5055 
     38 O          27.0327   27.6499    0.6785 O.2       5 UNK        -0.5220 
     39 N          29.1342   28.2833    1.2632 N.am      6 UNK        -0.4450 
     40 CA         29.0485   28.1604    2.7261 C.3       6 UNK         0.0367 
     41 CB         28.6625   26.7288    3.1552 C.3       6 UNK        -0.1929 
     42 C          28.1458   29.2266    3.3784 C.2       6 UNK         0.5070 
     43 O          27.6111   28.9955    4.4637 O.2       6 UNK        -0.5237 
     44 N          28.0108   30.3906    2.7249 N.am      7 UNK        -0.4739 
     45 CA         27.2783   31.5566    3.2359 C.3       7 UNK         0.0276 
     46 CB         27.0438   32.5470    2.0838 C.3       7 UNK        -0.1927 
     47 C          27.9929   32.2525    4.4110 C.2       7 UNK         0.5013 
     48 O          27.3431   32.9473    5.1930 O.2       7 UNK        -0.5193 
     49 N          29.3081   32.0416    4.5150 N.am      8 UNK        -0.4253 
     50 CA         30.1791   32.4536    5.6060 C.3       8 UNK         0.0242 
     51 CB         30.7507   33.8527    5.3163 C.3       8 UNK        -0.2000 
     52 C          31.2950   31.4087    5.7099 C.2       8 UNK         0.4948 
     53 O          31.5446   30.6815    4.7422 O.2       8 UNK        -0.5275 
     54 N          31.9857   31.3734    6.8554 N.am      9 UNK        -0.4246 
     55 CA         33.0860   30.4486    7.1605 C.3       9 UNK         0.0261 
     56 CB         33.2594   30.3672    8.6888 C.3       9 UNK        -0.1959 
     57 C          34.4083   30.7888    6.4357 C.2       9 UNK         0.5033 
     58 O          35.4827   30.6830    7.0305 O.2       9 UNK        -0.5390 
     59 N          34.3195   31.1630    5.1522 N.am      10 UNK        -0.4215 
     60 CA         35.4445   31.4954    4.2692 C.3       10 UNK         0.0240 
     61 CB         34.8928   32.0505    2.9460 C.3       10 UNK        -0.1982 
     62 C          36.3885   30.3080    4.0045 C.2       10 UNK         0.4970 
     63 O          37.5601   30.5190    3.6904 O.2       10 UNK        -0.4916 
     64 N          35.8585   29.0902    4.1567 N.am      11 UNK        -0.4279 
     65 CA         36.5886   27.8201    4.1416 C.3       11 UNK         0.1003 
     66 C          37.4676   27.5560    5.4017 C.2       11 UNK         0.5709 
     67 N          37.3816   28.3500    6.4645 N.am      11 UNK        -0.7358 
     68 O          38.2589   26.6159    5.4070 O.2       11 UNK        -0.4999 
     69 C69        35.6272   26.6431    3.8281 C.3       12 UNK        -0.0954 
     70 S70        34.2482   26.4604    5.0203 S.3       12 UNK        -0.2268 
     71 C71        32.8576   27.2945    4.1836 C.3       12 UNK         0.0203 
     72 H72        27.4305   25.1294    5.9939 H         1 UNK         0.0888 
     73 H73        28.0584   23.7414    6.8869 H         1 UNK         0.0888 
     74 H74        29.0172   24.4612    5.5956 H         1 UNK         0.0888 
     75 H75        28.8239   23.5248    3.5569 H         1 UNK         0.3017 
     76 H76        27.1820   21.2427    3.1167 H         1 UNK         0.0873 
     77 H77        29.3395   21.3066    2.0547 H         1 UNK         0.0745 
     78 H78        28.1561   21.3086    0.7895 H         1 UNK         0.0745 
     79 H79        31.5902   22.7130    0.9644 H         1 UNK         0.0705 
     80 H80        30.9584   22.9533    2.5772 H         1 UNK         0.0705 
     81 H81        31.7733   24.8352    3.7510 H         1 UNK         0.1334 
     82 H82        33.1212   28.3349    1.6731 H         1 UNK         0.1417 
     83 H83        31.5733   24.9966   -0.5301 H         1 UNK         0.1562 
     84 H84        32.6230   26.8364   -1.7166 H         1 UNK         0.0748 
     85 H85        33.5466   28.0221   -0.8307 H         1 UNK         0.0748 
     86 H86        29.9569   26.7008   -1.1807 H         1 UNK         0.0940 
     87 H87        29.8607   27.6036   -2.6558 H         1 UNK         0.0940 
     88 H88        28.5218   29.4133   -1.2370 H         1 UNK         0.0703 
     89 H89        26.7235   27.2783   -1.3319 H         1 UNK         0.3081 
     90 H90        24.9861   27.9059   -3.4506 H         1 UNK         0.0719 
     91 H91        25.8748   28.2231   -5.7294 H         1 UNK         0.0809 
     92 H92        26.7586   26.7073   -5.6462 H         1 UNK         0.0809 
     93 H93        24.9953   26.7060   -5.6543 H         1 UNK         0.0809 
     94 H94        24.8350   25.8580   -2.5876 H         1 UNK         0.2990 
     95 H95        25.1903   23.3877   -2.6789 H         1 UNK         0.0690 
     96 H96        26.8317   21.7012   -1.8830 H         1 UNK         0.0788 
     97 H97        28.1509   22.8529   -2.0847 H         1 UNK         0.0788 
     98 H98        27.2628   22.2710   -3.4871 H         1 UNK         0.0788 
     99 H99        26.8202   23.8422   -0.3032 H         1 UNK         0.2993 
    100 H100       25.2479   25.8903    1.3764 H         1 UNK         0.0949 
    101 H101       22.8742   25.2924    1.4882 H         1 UNK         0.0767 
    102 H102       23.2538   23.5916    1.7037 H         1 UNK         0.0767 
    103 H103       23.6651   24.7578    2.9609 H         1 UNK         0.0767 
    104 H104       26.7986   24.6212    2.3009 H         1 UNK         0.3013 
    105 H105       30.0332   28.5746    0.8980 H         1 UNK         0.3121 
    106 H106       30.0557   28.3529    3.0985 H         1 UNK         0.0774 
    107 H107       27.5979   26.5400    3.0181 H         1 UNK         0.0815 
    108 H108       29.2117   25.9806    2.5879 H         1 UNK         0.0815 
    109 H109       28.8865   26.5730    4.2104 H         1 UNK         0.0815 
    110 H110       28.4754   30.4966    1.8349 H         1 UNK         0.2987 
    111 H111       26.3066   31.2167    3.6013 H         1 UNK         0.0949 
    112 H112       26.4771   32.0874    1.2737 H         1 UNK         0.0806 
    113 H113       26.4740   33.4128    2.4244 H         1 UNK         0.0806 
    114 H114       27.9829   32.9177    1.6709 H         1 UNK         0.0806 
    115 H115       29.7530   31.4087    3.8616 H         1 UNK         0.3010 
    116 H116       29.6172   32.4621    6.5426 H         1 UNK         0.0829 
    117 H117       29.9556   34.5923    5.2200 H         1 UNK         0.0813 
    118 H118       31.4056   34.1865    6.1220 H         1 UNK         0.0813 
    119 H119       31.3329   33.8669    4.3938 H         1 UNK         0.0813 
    120 H120       31.7486   32.0353    7.5810 H         1 UNK         0.3038 
    121 H121       32.7948   29.4548    6.8130 H         1 UNK         0.0769 
    122 H122       34.0096   29.6230    8.9605 H         1 UNK         0.0811 
    123 H123       32.3306   30.0766    9.1801 H         1 UNK         0.0811 
    124 H124       33.5794   31.3214    9.1092 H         1 UNK         0.0811 
    125 H125       33.3885   31.1684    4.7428 H         1 UNK         0.3204 
    126 H126       36.0313   32.2768    4.7563 H         1 UNK         0.0748 
    127 H127       35.7030   32.3325    2.2719 H         1 UNK         0.0771 
    128 H128       34.2755   31.3165    2.4260 H         1 UNK         0.0771 
    129 H129       34.2866   32.9414    3.1116 H         1 UNK         0.0771 
    130 H130       34.8930   29.0256    4.4356 H         1 UNK         0.2980 
    131 H131       37.2955   27.8753    3.3117 H         1 UNK         0.0545 
    132 H132       37.9661   28.1601    7.2626 H         1 UNK         0.3459 
    133 H133       36.7385   29.1325    6.4911 H         1 UNK         0.3459 
    134 H134       35.2265   26.7626    2.8218 H         1 UNK         0.0616 
    135 H135       36.1769   25.7007    3.8023 H         1 UNK         0.0616 
    136 H136       31.9865   27.2640    4.8397 H         1 UNK         0.0634 
    137 H137       33.0935   28.3504    4.0486 H         1 UNK         0.0634 
@<TRIPOS>BOND
     1    1    2 1    
     2    1   72 1    
     3    1   73 1    
     4    1   74 1    
     5    2    3 2    
     6    2    4 am   BACKBONE|DICT|INTERRES
     7    4    5 1    
     8    4   75 1    
     9    5    6 1    
    10    5   35 1    
    11    5   76 1    
    12    6    7 1    
    13    6   77 1    
    14    6   78 1    
    15    7    8 1    
    16    8    9 1    
    17    8   79 1    
    18    8   80 1    
    19    9   10 ar   
    20    9   14 ar   
    21   10   11 ar   
    22   10   81 1    
    23   11   12 ar   
    24   11   71 1    
    25   12   13 ar   
    26   12   82 1    
    27   13   14 ar   
    28   13   15 1    
    29   14   83 1    
    30   15   16 1    
    31   15   84 1    
    32   15   85 1    
    33   16   17 1    
    34   17   18 1    
    35   17   86 1    
    36   17   87 1    
    37   18   19 1    
    38   18   37 1    
    39   18   88 1    
    40   19   20 am   BACKBONE|DICT|INTERRES
    41   19   89 1    
    42   20   21 2    
    43   20   22 1    
    44   22   23 1    
    45   22   24 1    
    46   22   90 1    
    47   23   91 1    
    48   23   92 1    
    49   23   93 1    
    50   24   25 am   BACKBONE|DICT|INTERRES
    51   24   94 1    
    52   25   26 2    
    53   25   27 1    
    54   27   28 1    
    55   27   29 1    
    56   27   95 1    
    57   28   96 1    
    58   28   97 1    
    59   28   98 1    
    60   29   30 am   BACKBONE|DICT|INTERRES
    61   29   99 1    
    62   30   31 2    
    63   30   32 1    
    64   32   33 1    
    65   32   34 1    
    66   32  100 1    
    67   33  101 1    
    68   33  102 1    
    69   33  103 1    
    70   34   35 am   BACKBONE|DICT|INTERRES
    71   34  104 1    
    72   35   36 2    
    73   37   38 2    
    74   37   39 am   BACKBONE|DICT|INTERRES
    75   39   40 1    
    76   39  105 1    
    77   40   41 1    
    78   40   42 1    
    79   40  106 1    
    80   41  107 1    
    81   41  108 1    
    82   41  109 1    
    83   42   43 2    
    84   42   44 am   BACKBONE|DICT|INTERRES
    85   44   45 1    
    86   44  110 1    
    87   45   46 1    
    88   45   47 1    
    89   45  111 1    
    90   46  112 1    
    91   46  113 1    
    92   46  114 1    
    93   47   48 2    
    94   47   49 am   BACKBONE|DICT|INTERRES
    95   49   50 1    
    96   49  115 1    
    97   50   51 1    
    98   50   52 1    
    99   50  116 1    
   100   51  117 1    
   101   51  118 1    
   102   51  119 1    
   103   52   53 2    
   104   52   54 am   BACKBONE|DICT|INTERRES
   105   54   55 1    
   106   54  120 1    
   107   55   56 1    
   108   55   57 1    
   109   55  121 1    
   110   56  122 1    
   111   56  123 1    
   112   56  124 1    
   113   57   58 2    
   114   57   59 am   BACKBONE|DICT|INTERRES
   115   59   60 1    
   116   59  125 1    
   117   60   61 1    
   118   60   62 1    
   119   60  126 1    
   120   61  127 1    
   121   61  128 1    
   122   61  129 1    
   123   62   63 2    
   124   62   64 am   BACKBONE|DICT|INTERRES
   125   64   65 1    
   126   64  130 1    
   127   65   66 1    
   128   65   69 1    
   129   65  131 1    
   130   66   67 am   BACKBONE|DICT|INTERRES
   131   66   68 2    
   132   67  132 1    
   133   67  133 1    
   134   69   70 1    
   135   69  134 1    
   136   69  135 1    
   137   70   71 1    
   138   71  136 1    
   139   71  137 1    
@<TRIPOS>SUBSTRUCTURE
     1 UNK         1 GROUP             0       ****    0 ROOT    
