@<TRIPOS>MOLECULE
3R136
137   139    1
SMALL
USER_CHARGES


@<TRIPOS>ATOM
      1 CA         29.6130   20.7415   -1.2487 C.3       0 UNK        -0.1979 
      2 C          29.2296   21.9554   -0.4171 C.2       0 UNK         0.4864 
      3 O          29.5436   23.0842   -0.7960 O.2       0 UNK        -0.5359 
      4 N          28.5406   21.7426    0.7114 N.am      1 UNK        -0.4318 
      5 CA         28.1224   22.7729    1.6743 C.3       1 UNK         0.0824 
      6 C6         27.9523   22.1942    3.1053 C.3       12 UNK        -0.0944 
      7 S7         29.3792   21.1991    3.6757 S.3       12 UNK        -0.2672 
      8 C8         30.2785   22.3412    4.7853 C.3       12 UNK         0.0333 
      9 C9         31.4409   23.1166    4.1552 C.ar      12 UNK        -0.0807 
     10 C10        32.3763   23.7117    5.0098 C.ar      12 UNK        -0.0894 
     11 C11        33.4728   24.4162    4.5018 C.ar      12 UNK        -0.0804 
     12 C12        33.6275   24.5319    3.1184 C.ar      12 UNK        -0.0824 
     13 C13        32.6901   23.9707    2.2477 C.ar      12 UNK        -0.0762 
     14 C14        31.6114   23.2526    2.7702 C.ar      12 UNK        -0.0782 
     15 C15        32.8722   24.1082    0.7427 C.3       12 UNK         0.0230 
     16 S16        32.7810   25.8433    0.1958 S.3       12 UNK        -0.2608 
     17 C17        30.9879   26.1235    0.0187 C.3       12 UNK        -0.0989 
     18 CA         30.5775   27.5636    0.4471 C.3       5 UNK         0.0716 
     19 N          29.5397   28.1073   -0.4273 N.am      5 UNK        -0.4135 
     20 C          29.7440   28.9420   -1.4543 C.2       4 UNK         0.5031 
     21 O          30.8583   29.3522   -1.7818 O.2       4 UNK        -0.5229 
     22 CA         28.5252   29.3940   -2.2869 C.3       4 UNK         0.0329 
     23 CB         28.6665   28.9301   -3.7474 C.3       4 UNK        -0.2001 
     24 N          27.2438   28.9110   -1.7708 N.am      4 UNK        -0.4303 
     25 C          26.5530   29.4635   -0.7647 C.2       3 UNK         0.5044 
     26 O          26.8797   30.5088   -0.2042 O.2       3 UNK        -0.5152 
     27 CA         25.2867   28.7151   -0.2951 C.3       3 UNK         0.0319 
     28 CB         24.0277   29.3794   -0.8751 C.3       3 UNK        -0.2001 
     29 N          25.2612   27.2783   -0.6079 N.am      3 UNK        -0.4354 
     30 C          26.1732   26.3822   -0.2042 C.2       2 UNK         0.4964 
     31 O          27.1693   26.6789    0.4578 O.2       2 UNK        -0.5047 
     32 CA         25.9679   24.9341   -0.6797 C.3       2 UNK         0.0288 
     33 CB         26.1313   24.8325   -2.2071 C.3       2 UNK        -0.2113 
     34 N          26.9416   24.0396   -0.0572 N.am      2 UNK        -0.4145 
     35 C          26.8781   23.5522    1.1873 C.2       1 UNK         0.5006 
     36 O          25.8991   23.6921    1.9238 O.2       1 UNK        -0.5103 
     37 C          30.1043   27.6670    1.9102 C.2       5 UNK         0.5055 
     38 O          29.1797   28.4297    2.2077 O.2       5 UNK        -0.5220 
     39 N          30.7544   26.9050    2.8013 N.am      6 UNK        -0.4450 
     40 CA         30.4296   26.7464    4.2231 C.3       6 UNK         0.0367 
     41 CB         29.1339   25.9139    4.3600 C.3       6 UNK        -0.1929 
     42 C          30.3839   28.0802    4.9960 C.2       6 UNK         0.5070 
     43 O          31.0804   29.0277    4.6281 O.2       6 UNK        -0.5237 
     44 N          29.5576   28.1354    6.0478 N.am      7 UNK        -0.4739 
     45 CA         29.2938   29.3360    6.8455 C.3       7 UNK         0.0276 
     46 CB         28.7151   28.9091    8.2053 C.3       7 UNK        -0.1927 
     47 C          28.3592   30.3446    6.1477 C.2       7 UNK         0.5013 
     48 O          28.2037   31.4570    6.6527 O.2       7 UNK        -0.5193 
     49 N          27.7422   29.9481    5.0233 N.am      8 UNK        -0.4253 
     50 CA         26.9393   30.8227    4.1659 C.3       8 UNK         0.0242 
     51 CB         26.0968   29.9734    3.2035 C.3       8 UNK        -0.2000 
     52 C          27.8209   31.8247    3.4015 C.2       8 UNK         0.4948 
     53 O          27.4671   33.0026    3.3241 O.2       8 UNK        -0.5275 
     54 N          28.9654   31.3441    2.8981 N.am      9 UNK        -0.4246 
     55 CA         30.0721   32.1581    2.4042 C.3       9 UNK         0.0261 
     56 CB         30.6254   31.5223    1.1126 C.3       9 UNK        -0.1959 
     57 C          31.1024   32.2955    3.5415 C.2       9 UNK         0.5033 
     58 O          30.7635   32.8265    4.6008 O.2       9 UNK        -0.5390 
     59 N          32.3306   31.8165    3.3213 N.am      10 UNK        -0.4215 
     60 CA         33.3933   31.7232    4.3213 C.3       10 UNK         0.0240 
     61 CB         34.1333   33.0715    4.4462 C.3       10 UNK        -0.1982 
     62 C          34.3120   30.5536    3.9425 C.2       10 UNK         0.4970 
     63 O          35.5240   30.7386    3.8162 O.2       10 UNK        -0.4916 
     64 N          33.7008   29.3829    3.7145 N.am      11 UNK        -0.4279 
     65 CA         34.3264   28.1697    3.1640 C.3       11 UNK         0.1003 
     66 C          34.9614   28.4134    1.7584 C.2       11 UNK         0.5709 
     67 N          36.0200   27.7063    1.3834 N.am      11 UNK        -0.7358 
     68 O          34.4568   29.2136    0.9722 O.2       11 UNK        -0.4999 
     69 C69        35.2499   27.4596    4.1976 C.3       12 UNK        -0.0954 
     70 S70        34.3120   26.8260    5.6318 S.3       12 UNK        -0.2268 
     71 C71        34.5012   25.0211    5.4500 C.3       12 UNK         0.0203 
     72 H72        29.2760   19.8114   -0.7915 H         1 UNK         0.0888 
     73 H73        29.1702   20.8129   -2.2417 H         1 UNK         0.0888 
     74 H74        30.6957   20.6922   -1.3604 H         1 UNK         0.0888 
     75 H75        28.2945   20.7964    0.9661 H         1 UNK         0.3017 
     76 H76        28.9069   23.5281    1.7273 H         1 UNK         0.0873 
     77 H77        27.0762   21.5439    3.1418 H         1 UNK         0.0745 
     78 H78        27.7555   22.9938    3.8212 H         1 UNK         0.0745 
     79 H79        29.5819   23.0415    5.2461 H         1 UNK         0.0705 
     80 H80        30.6753   21.7368    5.6025 H         1 UNK         0.0705 
     81 H81        32.2557   23.6158    6.0806 H         1 UNK         0.1334 
     82 H82        34.4782   25.0579    2.7104 H         1 UNK         0.1417 
     83 H83        30.9239   22.7840    2.0851 H         1 UNK         0.1562 
     84 H84        32.1406   23.5130    0.1939 H         1 UNK         0.0748 
     85 H85        33.8512   23.7102    0.4724 H         1 UNK         0.0748 
     86 H86        30.4169   25.3581    0.5486 H         1 UNK         0.0940 
     87 H87        30.7598   25.9615   -1.0364 H         1 UNK         0.0940 
     88 H88        31.4503   28.2175    0.3857 H         1 UNK         0.0703 
     89 H89        28.5930   27.8500   -0.1592 H         1 UNK         0.3081 
     90 H90        28.5177   30.4861   -2.2766 H         1 UNK         0.0719 
     91 H91        29.5852   29.3133   -4.1940 H         1 UNK         0.0809 
     92 H92        28.6964   27.8425   -3.8247 H         1 UNK         0.0809 
     93 H93        27.8392   29.2889   -4.3602 H         1 UNK         0.0809 
     94 H94        26.8893   28.0551   -2.1711 H         1 UNK         0.2990 
     95 H95        25.2435   28.8030    0.7904 H         1 UNK         0.0690 
     96 H96        23.9995   30.4425   -0.6307 H         1 UNK         0.0788 
     97 H97        23.1193   28.9333   -0.4698 H         1 UNK         0.0788 
     98 H98        23.9904   29.2940   -1.9618 H         1 UNK         0.0788 
     99 H99        24.4805   26.9562   -1.1624 H         1 UNK         0.2993 
    100 H100       24.9607   24.6169   -0.4005 H         1 UNK         0.0949 
    101 H101       26.0077   23.8044   -2.5485 H         1 UNK         0.0767 
    102 H102       25.3869   25.4329   -2.7312 H         1 UNK         0.0767 
    103 H103       27.1160   25.1734   -2.5312 H         1 UNK         0.0767 
    104 H104       27.8117   23.8887   -0.5604 H         1 UNK         0.3013 
    105 H105       31.5191   26.3355    2.4641 H         1 UNK         0.3121 
    106 H106       31.2487   26.1808    4.6630 H         1 UNK         0.0774 
    107 H107       28.2526   26.4787    4.0525 H         1 UNK         0.0815 
    108 H108       29.1788   25.0231    3.7358 H         1 UNK         0.0815 
    109 H109       28.9773   25.5732    5.3838 H         1 UNK         0.0815 
    110 H110       29.0285   27.3097    6.2892 H         1 UNK         0.2987 
    111 H111       30.2419   29.8497    7.0215 H         1 UNK         0.0949 
    112 H112       28.5451   29.7748    8.8471 H         1 UNK         0.0806 
    113 H113       27.7602   28.3939    8.0947 H         1 UNK         0.0806 
    114 H114       29.3973   28.2453    8.7367 H         1 UNK         0.0806 
    115 H115       27.9406   29.0225    4.6722 H         1 UNK         0.3010 
    116 H116       26.2575   31.3937    4.8001 H         1 UNK         0.0829 
    117 H117       26.7231   29.3465    2.5683 H         1 UNK         0.0813 
    118 H118       25.4084   29.3233    3.7433 H         1 UNK         0.0813 
    119 H119       25.4998   30.6086    2.5475 H         1 UNK         0.0813 
    120 H120       29.1439   30.3474    2.9753 H         1 UNK         0.3038 
    121 H121       29.7242   33.1638    2.1601 H         1 UNK         0.0769 
    122 H122       31.0126   30.5172    1.2792 H         1 UNK         0.0811 
    123 H123       31.4249   32.1261    0.6813 H         1 UNK         0.0811 
    124 H124       29.8433   31.4472    0.3567 H         1 UNK         0.0811 
    125 H125       32.5327   31.3877    2.4281 H         1 UNK         0.3204 
    126 H126       32.9536   31.4744    5.2898 H         1 UNK         0.0748 
    127 H127       34.9285   33.0139    5.1905 H         1 UNK         0.0771 
    128 H128       34.5882   33.3690    3.5006 H         1 UNK         0.0771 
    129 H129       33.4581   33.8683    4.7580 H         1 UNK         0.0771 
    130 H130       32.7038   29.3119    3.9157 H         1 UNK         0.2980 
    131 H131       33.4982   27.4937    2.9567 H         1 UNK         0.0545 
    132 H132       36.4019   27.8579    0.4633 H         1 UNK         0.3459 
    133 H133       36.4557   27.0426    2.0023 H         1 UNK         0.3459 
    134 H134       36.0170   28.1446    4.5613 H         1 UNK         0.0616 
    135 H135       35.7901   26.6278    3.7481 H         1 UNK         0.0616 
    136 H136       34.4032   24.5712    6.4391 H         1 UNK         0.0634 
    137 H137       35.5103   24.7782    5.1146 H         1 UNK         0.0634 
@<TRIPOS>BOND
     1    1    2 1    
     2    1   72 1    
     3    1   73 1    
     4    1   74 1    
     5    2    3 2    
     6    2    4 am   BACKBONE|DICT|INTERRES
     7    4    5 1    
     8    4   75 1    
     9    5    6 1    
    10    5   35 1    
    11    5   76 1    
    12    6    7 1    
    13    6   77 1    
    14    6   78 1    
    15    7    8 1    
    16    8    9 1    
    17    8   79 1    
    18    8   80 1    
    19    9   10 ar   
    20    9   14 ar   
    21   10   11 ar   
    22   10   81 1    
    23   11   12 ar   
    24   11   71 1    
    25   12   13 ar   
    26   12   82 1    
    27   13   14 ar   
    28   13   15 1    
    29   14   83 1    
    30   15   16 1    
    31   15   84 1    
    32   15   85 1    
    33   16   17 1    
    34   17   18 1    
    35   17   86 1    
    36   17   87 1    
    37   18   19 1    
    38   18   37 1    
    39   18   88 1    
    40   19   20 am   BACKBONE|DICT|INTERRES
    41   19   89 1    
    42   20   21 2    
    43   20   22 1    
    44   22   23 1    
    45   22   24 1    
    46   22   90 1    
    47   23   91 1    
    48   23   92 1    
    49   23   93 1    
    50   24   25 am   BACKBONE|DICT|INTERRES
    51   24   94 1    
    52   25   26 2    
    53   25   27 1    
    54   27   28 1    
    55   27   29 1    
    56   27   95 1    
    57   28   96 1    
    58   28   97 1    
    59   28   98 1    
    60   29   30 am   BACKBONE|DICT|INTERRES
    61   29   99 1    
    62   30   31 2    
    63   30   32 1    
    64   32   33 1    
    65   32   34 1    
    66   32  100 1    
    67   33  101 1    
    68   33  102 1    
    69   33  103 1    
    70   34   35 am   BACKBONE|DICT|INTERRES
    71   34  104 1    
    72   35   36 2    
    73   37   38 2    
    74   37   39 am   BACKBONE|DICT|INTERRES
    75   39   40 1    
    76   39  105 1    
    77   40   41 1    
    78   40   42 1    
    79   40  106 1    
    80   41  107 1    
    81   41  108 1    
    82   41  109 1    
    83   42   43 2    
    84   42   44 am   BACKBONE|DICT|INTERRES
    85   44   45 1    
    86   44  110 1    
    87   45   46 1    
    88   45   47 1    
    89   45  111 1    
    90   46  112 1    
    91   46  113 1    
    92   46  114 1    
    93   47   48 2    
    94   47   49 am   BACKBONE|DICT|INTERRES
    95   49   50 1    
    96   49  115 1    
    97   50   51 1    
    98   50   52 1    
    99   50  116 1    
   100   51  117 1    
   101   51  118 1    
   102   51  119 1    
   103   52   53 2    
   104   52   54 am   BACKBONE|DICT|INTERRES
   105   54   55 1    
   106   54  120 1    
   107   55   56 1    
   108   55   57 1    
   109   55  121 1    
   110   56  122 1    
   111   56  123 1    
   112   56  124 1    
   113   57   58 2    
   114   57   59 am   BACKBONE|DICT|INTERRES
   115   59   60 1    
   116   59  125 1    
   117   60   61 1    
   118   60   62 1    
   119   60  126 1    
   120   61  127 1    
   121   61  128 1    
   122   61  129 1    
   123   62   63 2    
   124   62   64 am   BACKBONE|DICT|INTERRES
   125   64   65 1    
   126   64  130 1    
   127   65   66 1    
   128   65   69 1    
   129   65  131 1    
   130   66   67 am   BACKBONE|DICT|INTERRES
   131   66   68 2    
   132   67  132 1    
   133   67  133 1    
   134   69   70 1    
   135   69  134 1    
   136   69  135 1    
   137   70   71 1    
   138   71  136 1    
   139   71  137 1    
@<TRIPOS>SUBSTRUCTURE
     1 UNK         1 GROUP             0       ****    0 ROOT    
