@<TRIPOS>MOLECULE
3R136
137   139    1
SMALL
USER_CHARGES


@<TRIPOS>ATOM
      1 CA         28.0699   18.4177    0.8474 C.3       0 UNK        -0.1979 
      2 C          27.7779   19.3214   -0.3415 C.2       0 UNK         0.4864 
      3 O          26.8080   19.0876   -1.0647 O.2       0 UNK        -0.5359 
      4 N          28.6158   20.3439   -0.5538 N.am      1 UNK        -0.4318 
      5 CA         28.4655   21.3660   -1.5938 C.3       1 UNK         0.0824 
      6 C6         29.7706   22.1801   -1.8363 C.3       12 UNK        -0.0944 
      7 S7         30.8164   22.4599   -0.3624 S.3       12 UNK        -0.2672 
      8 C8         30.3700   24.1561    0.1098 C.3       12 UNK         0.0333 
      9 C9         31.1075   24.5812    1.3719 C.ar      12 UNK        -0.0807 
     10 C10        32.0493   25.6158    1.3370 C.ar      12 UNK        -0.0894 
     11 C11        32.7144   26.0088    2.5039 C.ar      12 UNK        -0.0804 
     12 C12        32.4351   25.3585    3.7093 C.ar      12 UNK        -0.0824 
     13 C13        31.4788   24.3413    3.7614 C.ar      12 UNK        -0.0762 
     14 C14        30.8325   23.9447    2.5863 C.ar      12 UNK        -0.0782 
     15 C15        31.1021   23.7137    5.0955 C.3       12 UNK         0.0230 
     16 S16        29.3407   23.9728    5.4934 S.3       12 UNK        -0.2608 
     17 C17        29.2060   25.7970    5.5861 C.3       12 UNK        -0.0989 
     18 CA         28.9580   26.4939    4.2139 C.3       5 UNK         0.0716 
     19 N          27.9435   25.8478    3.3754 N.am      5 UNK        -0.4135 
     20 C          26.6361   25.7394    3.6384 C.2       4 UNK         0.5031 
     21 O          26.0991   26.1687    4.6614 O.2       4 UNK        -0.5229 
     22 CA         25.7938   25.0377    2.5528 C.3       4 UNK         0.0329 
     23 CB         24.2832   25.3130    2.7079 C.3       4 UNK        -0.2001 
     24 N          26.2174   25.3321    1.1741 N.am      4 UNK        -0.4303 
     25 C          26.3254   26.5448    0.6015 C.2       3 UNK         0.5044 
     26 O          26.2464   27.6035    1.2241 O.2       3 UNK        -0.5152 
     27 CA         26.5843   26.6090   -0.9176 C.3       3 UNK         0.0319 
     28 CB         27.9944   27.1430   -1.2025 C.3       3 UNK        -0.2001 
     29 N          26.4029   25.3325   -1.6129 N.am      3 UNK        -0.4354 
     30 C          25.2245   24.7194   -1.7927 C.2       2 UNK         0.4964 
     31 O          24.1447   25.2101   -1.4620 O.2       2 UNK        -0.5047 
     32 CA         25.2407   23.3173   -2.4286 C.3       2 UNK         0.0288 
     33 CB         24.7274   23.3830   -3.8771 C.3       2 UNK        -0.2113 
     34 N          26.5345   22.6204   -2.4163 N.am      2 UNK        -0.4145 
     35 C          27.2399   22.2677   -1.3303 C.2       1 UNK         0.5006 
     36 O          26.9668   22.6317   -0.1820 O.2       1 UNK        -0.5103 
     37 C          28.7581   28.0207    4.3312 C.2       5 UNK         0.5055 
     38 O          29.1071   28.6069    5.3569 O.2       5 UNK        -0.5220 
     39 N          28.2336   28.6440    3.2674 N.am      6 UNK        -0.4450 
     40 CA         28.0611   30.0899    3.1391 C.3       6 UNK         0.0367 
     41 CB         26.5963   30.4566    3.4446 C.3       6 UNK        -0.1929 
     42 C          28.5231   30.5767    1.7539 C.2       6 UNK         0.5070 
     43 O          27.9632   31.5416    1.2317 O.2       6 UNK        -0.5237 
     44 N          29.5384   29.9150    1.1732 N.am      7 UNK        -0.4739 
     45 CA         30.1374   30.2990   -0.1141 C.3       7 UNK         0.0276 
     46 CB         31.0248   29.1579   -0.6428 C.3       7 UNK        -0.1927 
     47 C          30.9531   31.6022   -0.0265 C.2       7 UNK         0.5013 
     48 O          31.0323   32.3391   -1.0101 O.2       7 UNK        -0.5193 
     49 N          31.5346   31.8567    1.1491 N.am      8 UNK        -0.4253 
     50 CA         32.3121   33.0335    1.5130 C.3       8 UNK         0.0242 
     51 CB         33.7367   32.9204    0.9361 C.3       8 UNK        -0.2000 
     52 C          32.3460   33.1019    3.0434 C.2       8 UNK         0.4948 
     53 O          32.0411   32.1047    3.7034 O.2       8 UNK        -0.5275 
     54 N          32.7693   34.2497    3.5908 N.am      9 UNK        -0.4246 
     55 CA         32.9419   34.4662    5.0356 C.3       9 UNK         0.0261 
     56 CB         33.3409   35.9285    5.2913 C.3       9 UNK        -0.1959 
     57 C          33.9564   33.5073    5.6900 C.2       9 UNK         0.5033 
     58 O          33.8008   33.1639    6.8629 O.2       9 UNK        -0.5390 
     59 N          34.9438   33.0542    4.9040 N.am      10 UNK        -0.4215 
     60 CA         35.9352   32.0411    5.2715 C.3       10 UNK         0.0240 
     61 CB         36.9858   31.9443    4.1527 C.3       10 UNK        -0.1982 
     62 C          35.3413   30.6497    5.5681 C.2       10 UNK         0.4970 
     63 O          36.0012   29.8618    6.2470 O.2       10 UNK        -0.4916 
     64 N          34.1280   30.3650    5.0726 N.am      11 UNK        -0.4279 
     65 CA         33.3937   29.1223    5.3538 C.3       11 UNK         0.1003 
     66 C          32.7771   29.0571    6.7819 C.2       11 UNK         0.5709 
     67 N          32.7343   30.1449    7.5451 N.am      11 UNK        -0.7358 
     68 O          32.3488   27.9894    7.2130 O.2       11 UNK        -0.4999 
     69 C69        32.3209   28.8197    4.2761 C.3       12 UNK        -0.0954 
     70 S70        32.9740   28.7827    2.5735 S.3       12 UNK        -0.2268 
     71 C71        33.7398   27.1330    2.4668 C.3       12 UNK         0.0203 
     72 H72        28.9610   18.7335    1.3898 H         1 UNK         0.0888 
     73 H73        27.2296   18.4280    1.5410 H         1 UNK         0.0888 
     74 H74        28.2230   17.3925    0.5113 H         1 UNK         0.0888 
     75 H75        29.3861   20.5034    0.0808 H         1 UNK         0.3017 
     76 H76        28.2572   20.8245   -2.5197 H         1 UNK         0.0873 
     77 H77        29.5709   23.1303   -2.3359 H         1 UNK         0.0745 
     78 H78        30.3927   21.6239   -2.5393 H         1 UNK         0.0745 
     79 H79        30.5979   24.8290   -0.7182 H         1 UNK         0.0705 
     80 H80        29.2944   24.2143    0.2812 H         1 UNK         0.0705 
     81 H81        32.2656   26.1191    0.4045 H         1 UNK         0.1334 
     82 H82        32.9393   25.6693    4.6145 H         1 UNK         0.1417 
     83 H83        30.0939   23.1550    2.6228 H         1 UNK         0.1562 
     84 H84        31.7128   24.1135    5.9066 H         1 UNK         0.0748 
     85 H85        31.3034   22.6424    5.0551 H         1 UNK         0.0748 
     86 H86        30.1098   26.1924    6.0545 H         1 UNK         0.0940 
     87 H87        28.3892   26.0282    6.2722 H         1 UNK         0.0940 
     88 H88        29.8762   26.4167    3.6379 H         1 UNK         0.0703 
     89 H89        28.2804   25.4489    2.5123 H         1 UNK         0.3081 
     90 H90        25.9506   23.9674    2.6959 H         1 UNK         0.0719 
     91 H91        23.7044   24.7868    1.9487 H         1 UNK         0.0809 
     92 H92        24.0582   26.3768    2.6230 H         1 UNK         0.0809 
     93 H93        23.9197   24.9788    3.6804 H         1 UNK         0.0809 
     94 H94        26.3606   24.5171    0.5860 H         1 UNK         0.2990 
     95 H95        25.8655   27.3192   -1.3320 H         1 UNK         0.0690 
     96 H96        28.1789   27.2372   -2.2728 H         1 UNK         0.0788 
     97 H97        28.7641   26.4980   -0.7805 H         1 UNK         0.0788 
     98 H98        28.1200   28.1350   -0.7676 H         1 UNK         0.0788 
     99 H99        27.2366   24.8620   -1.9310 H         1 UNK         0.2993 
    100 H100       24.5447   22.7076   -1.8484 H         1 UNK         0.0949 
    101 H101       23.7487   23.8631   -3.9257 H         1 UNK         0.0767 
    102 H102       25.4016   23.9527   -4.5182 H         1 UNK         0.0767 
    103 H103       24.6158   22.3867   -4.3057 H         1 UNK         0.0767 
    104 H104       26.8567   22.2929   -3.3161 H         1 UNK         0.3013 
    105 H105       27.8785   28.0957    2.4908 H         1 UNK         0.3121 
    106 H106       28.6989   30.6063    3.8599 H         1 UNK         0.0774 
    107 H107       26.4444   31.5362    3.4144 H         1 UNK         0.0815 
    108 H108       25.9137   30.0072    2.7221 H         1 UNK         0.0815 
    109 H109       26.3028   30.1171    4.4379 H         1 UNK         0.0815 
    110 H110       29.9664   29.1462    1.6687 H         1 UNK         0.2987 
    111 H111       29.3262   30.4609   -0.8277 H         1 UNK         0.0949 
    112 H112       31.9488   29.0623   -0.0743 H         1 UNK         0.0806 
    113 H113       30.5204   28.1944   -0.6133 H         1 UNK         0.0806 
    114 H114       31.3088   29.3434   -1.6794 H         1 UNK         0.0806 
    115 H115       31.3966   31.2134    1.9201 H         1 UNK         0.3010 
    116 H116       31.8161   33.9274    1.1292 H         1 UNK         0.0829 
    117 H117       33.7212   32.8561   -0.1519 H         1 UNK         0.0813 
    118 H118       34.3411   33.7903    1.1952 H         1 UNK         0.0813 
    119 H119       34.2528   32.0361    1.3133 H         1 UNK         0.0813 
    120 H120       32.9997   35.0248    2.9848 H         1 UNK         0.3038 
    121 H121       31.9756   34.2866    5.5118 H         1 UNK         0.0769 
    122 H122       33.4529   36.1207    6.3595 H         1 UNK         0.0811 
    123 H123       32.5833   36.6184    4.9189 H         1 UNK         0.0811 
    124 H124       34.2891   36.1794    4.8143 H         1 UNK         0.0811 
    125 H125       34.9857   33.4025    3.9578 H         1 UNK         0.3204 
    126 H126       36.4320   32.3809    6.1826 H         1 UNK         0.0748 
    127 H127       37.7624   31.2214    4.4071 H         1 UNK         0.0771 
    128 H128       36.5416   31.6257    3.2085 H         1 UNK         0.0771 
    129 H129       37.4806   32.9015    3.9869 H         1 UNK         0.0771 
    130 H130       33.6176   31.0612    4.5414 H         1 UNK         0.2980 
    131 H131       34.1169   28.3060    5.3160 H         1 UNK         0.0545 
    132 H132       33.0916   31.0296    7.2103 H         1 UNK         0.3459 
    133 H133       32.3379   30.0803    8.4689 H         1 UNK         0.3459 
    134 H134       31.5378   29.5783    4.3100 H         1 UNK         0.0616 
    135 H135       31.8202   27.8755    4.4846 H         1 UNK         0.0616 
    136 H136       34.3072   27.0750    1.5369 H         1 UNK         0.0634 
    137 H137       34.4677   27.0175    3.2709 H         1 UNK         0.0634 
@<TRIPOS>BOND
     1    1    2 1    
     2    1   72 1    
     3    1   73 1    
     4    1   74 1    
     5    2    3 2    
     6    2    4 am   BACKBONE|DICT|INTERRES
     7    4    5 1    
     8    4   75 1    
     9    5    6 1    
    10    5   35 1    
    11    5   76 1    
    12    6    7 1    
    13    6   77 1    
    14    6   78 1    
    15    7    8 1    
    16    8    9 1    
    17    8   79 1    
    18    8   80 1    
    19    9   10 ar   
    20    9   14 ar   
    21   10   11 ar   
    22   10   81 1    
    23   11   12 ar   
    24   11   71 1    
    25   12   13 ar   
    26   12   82 1    
    27   13   14 ar   
    28   13   15 1    
    29   14   83 1    
    30   15   16 1    
    31   15   84 1    
    32   15   85 1    
    33   16   17 1    
    34   17   18 1    
    35   17   86 1    
    36   17   87 1    
    37   18   19 1    
    38   18   37 1    
    39   18   88 1    
    40   19   20 am   BACKBONE|DICT|INTERRES
    41   19   89 1    
    42   20   21 2    
    43   20   22 1    
    44   22   23 1    
    45   22   24 1    
    46   22   90 1    
    47   23   91 1    
    48   23   92 1    
    49   23   93 1    
    50   24   25 am   BACKBONE|DICT|INTERRES
    51   24   94 1    
    52   25   26 2    
    53   25   27 1    
    54   27   28 1    
    55   27   29 1    
    56   27   95 1    
    57   28   96 1    
    58   28   97 1    
    59   28   98 1    
    60   29   30 am   BACKBONE|DICT|INTERRES
    61   29   99 1    
    62   30   31 2    
    63   30   32 1    
    64   32   33 1    
    65   32   34 1    
    66   32  100 1    
    67   33  101 1    
    68   33  102 1    
    69   33  103 1    
    70   34   35 am   BACKBONE|DICT|INTERRES
    71   34  104 1    
    72   35   36 2    
    73   37   38 2    
    74   37   39 am   BACKBONE|DICT|INTERRES
    75   39   40 1    
    76   39  105 1    
    77   40   41 1    
    78   40   42 1    
    79   40  106 1    
    80   41  107 1    
    81   41  108 1    
    82   41  109 1    
    83   42   43 2    
    84   42   44 am   BACKBONE|DICT|INTERRES
    85   44   45 1    
    86   44  110 1    
    87   45   46 1    
    88   45   47 1    
    89   45  111 1    
    90   46  112 1    
    91   46  113 1    
    92   46  114 1    
    93   47   48 2    
    94   47   49 am   BACKBONE|DICT|INTERRES
    95   49   50 1    
    96   49  115 1    
    97   50   51 1    
    98   50   52 1    
    99   50  116 1    
   100   51  117 1    
   101   51  118 1    
   102   51  119 1    
   103   52   53 2    
   104   52   54 am   BACKBONE|DICT|INTERRES
   105   54   55 1    
   106   54  120 1    
   107   55   56 1    
   108   55   57 1    
   109   55  121 1    
   110   56  122 1    
   111   56  123 1    
   112   56  124 1    
   113   57   58 2    
   114   57   59 am   BACKBONE|DICT|INTERRES
   115   59   60 1    
   116   59  125 1    
   117   60   61 1    
   118   60   62 1    
   119   60  126 1    
   120   61  127 1    
   121   61  128 1    
   122   61  129 1    
   123   62   63 2    
   124   62   64 am   BACKBONE|DICT|INTERRES
   125   64   65 1    
   126   64  130 1    
   127   65   66 1    
   128   65   69 1    
   129   65  131 1    
   130   66   67 am   BACKBONE|DICT|INTERRES
   131   66   68 2    
   132   67  132 1    
   133   67  133 1    
   134   69   70 1    
   135   69  134 1    
   136   69  135 1    
   137   70   71 1    
   138   71  136 1    
   139   71  137 1    
@<TRIPOS>SUBSTRUCTURE
     1 UNK         1 GROUP             0       ****    0 ROOT    
