@<TRIPOS>MOLECULE
3R136
137   139    1
SMALL
USER_CHARGES


@<TRIPOS>ATOM
      1 CA         29.1557   20.4099   -3.6310 C.3       0 UNK        -0.1979 
      2 C          29.3887   21.2818   -2.4065 C.2       0 UNK         0.4864 
      3 O          28.7119   22.2981   -2.2398 O.2       0 UNK        -0.5359 
      4 N          30.3320   20.8900   -1.5399 N.am      1 UNK        -0.4318 
      5 CA         30.7180   21.5987   -0.3125 C.3       1 UNK         0.0824 
      6 C6         32.1866   21.2837    0.0829 C.3       12 UNK        -0.0944 
      7 S7         33.3542   22.1126   -1.0543 S.3       12 UNK        -0.2672 
      8 C8         33.9511   23.5310   -0.0655 C.3       12 UNK         0.0333 
      9 C9         32.8167   24.2948    0.6061 C.ar      12 UNK        -0.0807 
     10 C10        32.6249   24.1844    1.9870 C.ar      12 UNK        -0.0894 
     11 C11        31.5379   24.8071    2.6034 C.ar      12 UNK        -0.0804 
     12 C12        30.6401   25.5441    1.8302 C.ar      12 UNK        -0.0824 
     13 C13        30.8297   25.6817    0.4522 C.ar      12 UNK        -0.0762 
     14 C14        31.9322   25.0690   -0.1530 C.ar      12 UNK        -0.0782 
     15 C15        29.8008   26.4206   -0.3925 C.3       12 UNK         0.0230 
     16 S16        30.1456   28.2021   -0.5507 S.3       12 UNK        -0.2608 
     17 C17        29.7207   28.8760    1.0922 C.3       12 UNK        -0.0989 
     18 CA         28.2486   29.3549    1.1977 C.3       5 UNK         0.0716 
     19 N          27.3111   28.2312    1.1492 N.am      5 UNK        -0.4135 
     20 C          26.0060   28.3173    0.8609 C.2       4 UNK         0.5031 
     21 O          25.4464   29.3602    0.5189 O.2       4 UNK        -0.5229 
     22 CA         25.1841   27.0184    0.9534 C.3       4 UNK         0.0329 
     23 CB         24.9924   26.4084   -0.4449 C.3       4 UNK        -0.2001 
     24 N          25.8160   26.0201    1.8187 N.am      4 UNK        -0.4303 
     25 C          25.6623   25.9188    3.1435 C.2       3 UNK         0.5044 
     26 O          24.8746   26.6173    3.7837 O.2       3 UNK        -0.5152 
     27 CA         26.5357   24.8670    3.8737 C.3       3 UNK         0.0319 
     28 CB         26.0634   24.6143    5.3179 C.3       3 UNK        -0.2001 
     29 N          26.6592   23.5689    3.1909 N.am      3 UNK        -0.4354 
     30 C          27.3287   23.3328    2.0554 C.2       2 UNK         0.4964 
     31 O          27.8546   24.2235    1.3852 O.2       2 UNK        -0.5047 
     32 CA         27.3744   21.8794    1.5597 C.3       2 UNK         0.0288 
     33 CB         26.0430   21.4980    0.8913 C.3       2 UNK        -0.2113 
     34 N          28.4452   21.7444    0.5745 N.am      2 UNK        -0.4145 
     35 C          29.7032   21.3694    0.8310 C.2       1 UNK         0.5006 
     36 O          30.0628   20.8735    1.9012 O.2       1 UNK        -0.5103 
     37 C          28.0463   30.1646    2.4944 C.2       5 UNK         0.5055 
     38 O          27.5061   29.6428    3.4740 O.2       5 UNK        -0.5220 
     39 N          28.5404   31.4069    2.4851 N.am      6 UNK        -0.4450 
     40 CA         28.6555   32.2705    3.6602 C.3       6 UNK         0.0367 
     41 CB         27.3330   33.0095    3.9353 C.3       6 UNK        -0.1929 
     42 C          29.8242   33.2461    3.4772 C.2       6 UNK         0.5070 
     43 O          30.6676   33.3599    4.3659 O.2       6 UNK        -0.5237 
     44 N          29.8692   33.9206    2.3180 N.am      7 UNK        -0.4739 
     45 CA         30.9584   34.8311    1.9492 C.3       7 UNK         0.0276 
     46 CB         30.4411   35.8714    0.9417 C.3       7 UNK        -0.1927 
     47 C          32.1747   34.0831    1.3784 C.2       7 UNK         0.5013 
     48 O          33.3093   34.4348    1.7020 O.2       7 UNK        -0.5193 
     49 N          31.9153   33.0725    0.5351 N.am      8 UNK        -0.4253 
     50 CA         32.9370   32.2698   -0.1464 C.3       8 UNK         0.0242 
     51 CB         32.2901   31.5247   -1.3252 C.3       8 UNK        -0.2000 
     52 C          33.6707   31.2808    0.7771 C.2       8 UNK         0.4948 
     53 O          34.8241   30.9467    0.5028 O.2       8 UNK        -0.5275 
     54 N          33.0015   30.8372    1.8459 N.am      9 UNK        -0.4246 
     55 CA         33.5267   29.9526    2.8776 C.3       9 UNK         0.0261 
     56 CB         33.4580   28.4829    2.4203 C.3       9 UNK        -0.1959 
     57 C          32.6773   30.1850    4.1269 C.2       9 UNK         0.5033 
     58 O          31.4497   30.2116    4.0128 O.2       9 UNK        -0.5390 
     59 N          33.3318   30.3378    5.2862 N.am      10 UNK        -0.4215 
     60 CA         32.7027   30.6690    6.5730 C.3       10 UNK         0.0240 
     61 CB         33.7983   30.9372    7.6181 C.3       10 UNK        -0.1982 
     62 C          31.7103   29.6129    7.0933 C.2       10 UNK         0.4970 
     63 O          30.8116   29.9572    7.8618 O.2       10 UNK        -0.4916 
     64 N          31.8807   28.3604    6.6558 N.am      11 UNK        -0.4279 
     65 CA         30.9276   27.2581    6.8416 C.3       11 UNK         0.1003 
     66 C          29.6072   27.3988    6.0251 C.2       11 UNK         0.5709 
     67 N          29.5045   28.3240    5.0787 N.am      11 UNK        -0.7358 
     68 O          28.6554   26.6645    6.2744 O.2       11 UNK        -0.4999 
     69 C69        31.6129   25.8823    6.6245 C.3       12 UNK        -0.0954 
     70 S70        32.4587   25.7493    5.0121 S.3       12 UNK        -0.2268 
     71 C71        31.3191   24.6689    4.0999 C.3       12 UNK         0.0203 
     72 H72        29.3225   20.9882   -4.5393 H         1 UNK         0.0888 
     73 H73        29.8221   19.5478   -3.6508 H         1 UNK         0.0888 
     74 H74        28.1287   20.0458   -3.6420 H         1 UNK         0.0888 
     75 H75        30.8418   20.0374   -1.7226 H         1 UNK         0.3017 
     76 H76        30.6590   22.6689   -0.5172 H         1 UNK         0.0873 
     77 H77        32.4097   21.5952    1.1036 H         1 UNK         0.0745 
     78 H78        32.3699   20.2083    0.0604 H         1 UNK         0.0745 
     79 H79        34.5101   24.2067   -0.7142 H         1 UNK         0.0705 
     80 H80        34.6610   23.1656    0.6783 H         1 UNK         0.0705 
     81 H81        33.3074   23.5943    2.5834 H         1 UNK         0.1334 
     82 H82        29.7757   25.9873    2.3029 H         1 UNK         0.1417 
     83 H83        32.0733   25.1485   -1.2224 H         1 UNK         0.1562 
     84 H84        28.8005   26.2695    0.0098 H         1 UNK         0.0748 
     85 H85        29.7770   25.9876   -1.3936 H         1 UNK         0.0748 
     86 H86        30.4041   29.7106    1.2542 H         1 UNK         0.0940 
     87 H87        29.9606   28.1649    1.8806 H         1 UNK         0.0940 
     88 H88        28.0334   30.0152    0.3545 H         1 UNK         0.0703 
     89 H89        27.6647   27.3428    1.4645 H         1 UNK         0.3081 
     90 H90        24.2011   27.2740    1.3546 H         1 UNK         0.0719 
     91 H91        25.9444   26.1290   -0.8985 H         1 UNK         0.0809 
     92 H92        24.3659   25.5171   -0.4054 H         1 UNK         0.0809 
     93 H93        24.5053   27.1166   -1.1167 H         1 UNK         0.0809 
     94 H94        26.4946   25.3927    1.3905 H         1 UNK         0.2990 
     95 H95        27.5368   25.2996    3.9336 H         1 UNK         0.0690 
     96 H96        26.7362   23.9357    5.8427 H         1 UNK         0.0788 
     97 H97        25.0603   24.1873    5.3457 H         1 UNK         0.0788 
     98 H98        26.0416   25.5420    5.8918 H         1 UNK         0.0788 
     99 H99        26.2081   22.7895    3.6484 H         1 UNK         0.2993 
    100 H100       27.5580   21.2184    2.4096 H         1 UNK         0.0949 
    101 H101       26.0702   20.4756    0.5134 H         1 UNK         0.0767 
    102 H102       25.2141   21.5589    1.5977 H         1 UNK         0.0767 
    103 H103       25.8083   22.1569    0.0538 H         1 UNK         0.0767 
    104 H104       28.2716   22.1604   -0.3367 H         1 UNK         0.3013 
    105 H105       28.9923   31.7389    1.6472 H         1 UNK         0.3121 
    106 H106       28.8938   31.6491    4.5274 H         1 UNK         0.0774 
    107 H107       27.4316   33.6785    4.7911 H         1 UNK         0.0815 
    108 H108       27.0177   33.6111    3.0824 H         1 UNK         0.0815 
    109 H109       26.5300   32.3087    4.1644 H         1 UNK         0.0815 
    110 H110       29.0960   33.8479    1.6726 H         1 UNK         0.2987 
    111 H111       31.2906   35.3682    2.8411 H         1 UNK         0.0949 
    112 H112       31.2316   36.5700    0.6635 H         1 UNK         0.0806 
    113 H113       30.0791   35.4077    0.0232 H         1 UNK         0.0806 
    114 H114       29.6265   36.4600    1.3640 H         1 UNK         0.0806 
    115 H115       30.9546   32.8820    0.2971 H         1 UNK         0.3010 
    116 H116       33.6888   32.9519   -0.5500 H         1 UNK         0.0829 
    117 H117       31.8609   32.2194   -2.0475 H         1 UNK         0.0813 
    118 H118       33.0265   30.9211   -1.8578 H         1 UNK         0.0813 
    119 H119       31.4989   30.8525   -0.9937 H         1 UNK         0.0813 
    120 H120       32.0739   31.1907    2.0374 H         1 UNK         0.3038 
    121 H121       34.5642   30.2225    3.0865 H         1 UNK         0.0769 
    122 H122       34.0263   28.3212    1.5044 H         1 UNK         0.0811 
    123 H123       33.8731   27.8184    3.1784 H         1 UNK         0.0811 
    124 H124       32.4327   28.1616    2.2343 H         1 UNK         0.0811 
    125 H125       34.3407   30.2861    5.2824 H         1 UNK         0.3204 
    126 H126       32.1359   31.5914    6.4269 H         1 UNK         0.0748 
    127 H127       33.3623   31.2148    8.5790 H         1 UNK         0.0771 
    128 H128       34.4213   30.0575    7.7852 H         1 UNK         0.0771 
    129 H129       34.4478   31.7577    7.3121 H         1 UNK         0.0771 
    130 H130       32.6413   28.1695    6.0212 H         1 UNK         0.2980 
    131 H131       30.6161   27.2883    7.8874 H         1 UNK         0.0545 
    132 H132       30.2801   28.9412    4.8601 H         1 UNK         0.3459 
    133 H133       28.6227   28.4684    4.6021 H         1 UNK         0.3459 
    134 H134       30.9022   25.0630    6.7475 H         1 UNK         0.0616 
    135 H135       32.3662   25.7311    7.3990 H         1 UNK         0.0616 
    136 H136       30.2878   24.9191    4.3541 H         1 UNK         0.0634 
    137 H137       31.4729   23.6338    4.4082 H         1 UNK         0.0634 
@<TRIPOS>BOND
     1    1    2 1    
     2    1   72 1    
     3    1   73 1    
     4    1   74 1    
     5    2    3 2    
     6    2    4 am   BACKBONE|DICT|INTERRES
     7    4    5 1    
     8    4   75 1    
     9    5    6 1    
    10    5   35 1    
    11    5   76 1    
    12    6    7 1    
    13    6   77 1    
    14    6   78 1    
    15    7    8 1    
    16    8    9 1    
    17    8   79 1    
    18    8   80 1    
    19    9   10 ar   
    20    9   14 ar   
    21   10   11 ar   
    22   10   81 1    
    23   11   12 ar   
    24   11   71 1    
    25   12   13 ar   
    26   12   82 1    
    27   13   14 ar   
    28   13   15 1    
    29   14   83 1    
    30   15   16 1    
    31   15   84 1    
    32   15   85 1    
    33   16   17 1    
    34   17   18 1    
    35   17   86 1    
    36   17   87 1    
    37   18   19 1    
    38   18   37 1    
    39   18   88 1    
    40   19   20 am   BACKBONE|DICT|INTERRES
    41   19   89 1    
    42   20   21 2    
    43   20   22 1    
    44   22   23 1    
    45   22   24 1    
    46   22   90 1    
    47   23   91 1    
    48   23   92 1    
    49   23   93 1    
    50   24   25 am   BACKBONE|DICT|INTERRES
    51   24   94 1    
    52   25   26 2    
    53   25   27 1    
    54   27   28 1    
    55   27   29 1    
    56   27   95 1    
    57   28   96 1    
    58   28   97 1    
    59   28   98 1    
    60   29   30 am   BACKBONE|DICT|INTERRES
    61   29   99 1    
    62   30   31 2    
    63   30   32 1    
    64   32   33 1    
    65   32   34 1    
    66   32  100 1    
    67   33  101 1    
    68   33  102 1    
    69   33  103 1    
    70   34   35 am   BACKBONE|DICT|INTERRES
    71   34  104 1    
    72   35   36 2    
    73   37   38 2    
    74   37   39 am   BACKBONE|DICT|INTERRES
    75   39   40 1    
    76   39  105 1    
    77   40   41 1    
    78   40   42 1    
    79   40  106 1    
    80   41  107 1    
    81   41  108 1    
    82   41  109 1    
    83   42   43 2    
    84   42   44 am   BACKBONE|DICT|INTERRES
    85   44   45 1    
    86   44  110 1    
    87   45   46 1    
    88   45   47 1    
    89   45  111 1    
    90   46  112 1    
    91   46  113 1    
    92   46  114 1    
    93   47   48 2    
    94   47   49 am   BACKBONE|DICT|INTERRES
    95   49   50 1    
    96   49  115 1    
    97   50   51 1    
    98   50   52 1    
    99   50  116 1    
   100   51  117 1    
   101   51  118 1    
   102   51  119 1    
   103   52   53 2    
   104   52   54 am   BACKBONE|DICT|INTERRES
   105   54   55 1    
   106   54  120 1    
   107   55   56 1    
   108   55   57 1    
   109   55  121 1    
   110   56  122 1    
   111   56  123 1    
   112   56  124 1    
   113   57   58 2    
   114   57   59 am   BACKBONE|DICT|INTERRES
   115   59   60 1    
   116   59  125 1    
   117   60   61 1    
   118   60   62 1    
   119   60  126 1    
   120   61  127 1    
   121   61  128 1    
   122   61  129 1    
   123   62   63 2    
   124   62   64 am   BACKBONE|DICT|INTERRES
   125   64   65 1    
   126   64  130 1    
   127   65   66 1    
   128   65   69 1    
   129   65  131 1    
   130   66   67 am   BACKBONE|DICT|INTERRES
   131   66   68 2    
   132   67  132 1    
   133   67  133 1    
   134   69   70 1    
   135   69  134 1    
   136   69  135 1    
   137   70   71 1    
   138   71  136 1    
   139   71  137 1    
@<TRIPOS>SUBSTRUCTURE
     1 UNK         1 GROUP             0       ****    0 ROOT    
