@<TRIPOS>MOLECULE
3R136
137   139    1
SMALL
USER_CHARGES


@<TRIPOS>ATOM
      1 CA         32.8792   24.9400   -2.3284 C.3       0 UNK        -0.1979 
      2 C          31.6497   24.9655   -1.4346 C.2       0 UNK         0.4864 
      3 O          30.9925   26.0031   -1.3334 O.2       0 UNK        -0.5359 
      4 N          31.3244   23.8288   -0.7996 N.am      1 UNK        -0.4318 
      5 CA         30.2213   23.6481    0.1586 C.3       1 UNK         0.0824 
      6 C6         30.1416   22.1988    0.6981 C.3       12 UNK        -0.0944 
      7 S7         31.6990   21.6652    1.4862 S.3       12 UNK        -0.2672 
      8 C8         31.1911   21.3932    3.2172 C.3       12 UNK         0.0333 
      9 C9         30.7742   22.6757    3.9280 C.ar      12 UNK        -0.0807 
     10 C10        31.6644   23.7507    4.0267 C.ar      12 UNK        -0.0894 
     11 C11        31.2937   24.9192    4.6972 C.ar      12 UNK        -0.0804 
     12 C12        30.0215   25.0120    5.2668 C.ar      12 UNK        -0.0824 
     13 C13        29.1247   23.9427    5.1871 C.ar      12 UNK        -0.0762 
     14 C14        29.5101   22.7735    4.5215 C.ar      12 UNK        -0.0782 
     15 C15        27.7525   24.0575    5.8456 C.3       12 UNK         0.0230 
     16 S16        26.3404   23.8094    4.7105 S.3       12 UNK        -0.2608 
     17 C17        26.8529   24.6525    3.1769 C.3       12 UNK        -0.0989 
     18 CA         27.0407   26.1871    3.3024 C.3       5 UNK         0.0716 
     19 N          28.0712   26.6591    2.3748 N.am      5 UNK        -0.4135 
     20 C          28.8394   27.7364    2.5786 C.2       4 UNK         0.5031 
     21 O          28.7998   28.4229    3.5986 O.2       4 UNK        -0.5229 
     22 CA         29.8307   28.1185    1.4668 C.3       4 UNK         0.0329 
     23 CB         31.1906   27.4508    1.7108 C.3       4 UNK        -0.2001 
     24 N          29.3810   27.8092    0.1076 N.am      4 UNK        -0.4303 
     25 C          28.3358   28.3869   -0.5008 C.2       3 UNK         0.5044 
     26 O          27.5413   29.1327    0.0692 O.2       3 UNK        -0.5152 
     27 CA         28.1404   28.0776   -1.9907 C.3       3 UNK         0.0319 
     28 CB         29.2066   28.7926   -2.8370 C.3       3 UNK        -0.2001 
     29 N          28.2111   26.6381   -2.2288 N.am      3 UNK        -0.4354 
     30 C          27.1440   25.8358   -2.3482 C.2       2 UNK         0.4964 
     31 O          25.9818   26.2398   -2.3899 O.2       2 UNK        -0.5047 
     32 CA         27.4063   24.3177   -2.4091 C.3       2 UNK         0.0288 
     33 CB         27.4860   23.8445   -3.8696 C.3       2 UNK        -0.2113 
     34 N          28.6128   23.8843   -1.6955 N.am      2 UNK        -0.4145 
     35 C          28.8497   24.0888   -0.3907 C.2       1 UNK         0.5006 
     36 O          28.0595   24.6583    0.3604 O.2       1 UNK        -0.5103 
     37 C          25.7139   26.9470    3.0978 C.2       5 UNK         0.5055 
     38 O          24.9652   27.1277    4.0593 O.2       5 UNK        -0.5220 
     39 N          25.4405   27.3721    1.8547 N.am      6 UNK        -0.4450 
     40 CA         24.2412   28.1212    1.4767 C.3       6 UNK         0.0367 
     41 CB         24.0182   28.0004   -0.0400 C.3       6 UNK        -0.1929 
     42 C          24.3223   29.5962    1.9005 C.2       6 UNK         0.5070 
     43 O          23.3532   30.1239    2.4475 O.2       6 UNK        -0.5237 
     44 N          25.4718   30.2263    1.6361 N.am      7 UNK        -0.4739 
     45 CA         25.7928   31.6031    1.9948 C.3       7 UNK         0.0276 
     46 CB         26.1605   32.3792    0.7124 C.3       7 UNK        -0.1927 
     47 C          26.9039   31.5707    3.0557 C.2       7 UNK         0.5013 
     48 O          26.6294   31.1875    4.1940 O.2       7 UNK        -0.5193 
     49 N          28.1236   31.9694    2.6804 N.am      8 UNK        -0.4253 
     50 CA         29.3232   31.9653    3.5104 C.3       8 UNK         0.0242 
     51 CB         29.3201   33.1794    4.4594 C.3       8 UNK        -0.2000 
     52 C          30.5457   31.9936    2.5868 C.2       8 UNK         0.4948 
     53 O          30.4281   32.4122    1.4314 O.2       8 UNK        -0.5275 
     54 N          31.6954   31.5725    3.1192 N.am      9 UNK        -0.4246 
     55 CA         33.0076   31.5836    2.4771 C.3       9 UNK         0.0261 
     56 CB         33.1030   30.4766    1.4061 C.3       9 UNK        -0.1959 
     57 C          34.0647   31.3880    3.5734 C.2       9 UNK         0.5033 
     58 O          33.7087   31.2263    4.7465 O.2       9 UNK        -0.5390 
     59 N          35.3444   31.3648    3.1787 N.am      10 UNK        -0.4215 
     60 CA         36.4935   31.0636    4.0398 C.3       10 UNK         0.0240 
     61 CB         37.7772   31.5738    3.3576 C.3       10 UNK        -0.1982 
     62 C          36.5641   29.5613    4.3879 C.2       10 UNK         0.4970 
     63 O          37.4627   28.8567    3.9243 O.2       10 UNK        -0.4916 
     64 N          35.5790   29.1013    5.1659 N.am      11 UNK        -0.4279 
     65 CA         35.4062   27.7237    5.6414 C.3       11 UNK         0.1003 
     66 C          36.5878   27.2284    6.5223 C.2       11 UNK         0.5709 
     67 N          36.9680   25.9637    6.4028 N.am      11 UNK        -0.7358 
     68 O          37.1362   27.9714    7.3351 O.2       11 UNK        -0.4999 
     69 C69        34.0432   27.5872    6.3721 C.3       12 UNK        -0.0954 
     70 S70        33.3369   25.9097    6.2689 S.3       12 UNK        -0.2268 
     71 C71        32.2619   26.0845    4.8132 C.3       12 UNK         0.0203 
     72 H72        33.6082   25.6708   -1.9796 H         1 UNK         0.0888 
     73 H73        33.3569   23.9605   -2.3381 H         1 UNK         0.0888 
     74 H74        32.6033   25.1949   -3.3512 H         1 UNK         0.0888 
     75 H75        31.9143   23.0171   -0.9198 H         1 UNK         0.3017 
     76 H76        30.4365   24.3003    1.0063 H         1 UNK         0.0873 
     77 H77        29.3262   22.1033    1.4184 H         1 UNK         0.0745 
     78 H78        29.9151   21.4998   -0.1094 H         1 UNK         0.0745 
     79 H79        30.3885   20.6542    3.2377 H         1 UNK         0.0705 
     80 H80        32.0273   20.9506    3.7600 H         1 UNK         0.0705 
     81 H81        32.6489   23.6742    3.5854 H         1 UNK         0.1334 
     82 H82        29.7357   25.9182    5.7838 H         1 UNK         0.1417 
     83 H83        28.8188   21.9434    4.4644 H         1 UNK         0.1562 
     84 H84        27.6371   25.0317    6.3231 H         1 UNK         0.0748 
     85 H85        27.6859   23.3225    6.6487 H         1 UNK         0.0748 
     86 H86        26.1420   24.4030    2.3862 H         1 UNK         0.0940 
     87 H87        27.7851   24.1830    2.8636 H         1 UNK         0.0940 
     88 H88        27.3825   26.4112    4.3144 H         1 UNK         0.0703 
     89 H89        28.1823   26.1145    1.5228 H         1 UNK         0.3081 
     90 H90        29.9724   29.1999    1.5147 H         1 UNK         0.0719 
     91 H91        31.6355   27.8273    2.6308 H         1 UNK         0.0809 
     92 H92        31.1026   26.3690    1.8058 H         1 UNK         0.0809 
     93 H93        31.8910   27.6577    0.9015 H         1 UNK         0.0809 
     94 H94        29.9811   27.1900   -0.4359 H         1 UNK         0.2990 
     95 H95        27.1634   28.4651   -2.2878 H         1 UNK         0.0690 
     96 H96        29.1838   29.8695   -2.6643 H         1 UNK         0.0788 
     97 H97        29.0365   28.6315   -3.9016 H         1 UNK         0.0788 
     98 H98        30.2143   28.4450   -2.6045 H         1 UNK         0.0788 
     99 H99        29.1320   26.2177   -2.1605 H         1 UNK         0.2993 
    100 H100       26.5540   23.8272   -1.9339 H         1 UNK         0.0949 
    101 H101       27.5695   22.7592   -3.9320 H         1 UNK         0.0767 
    102 H102       26.5896   24.1305   -4.4220 H         1 UNK         0.0767 
    103 H103       28.3414   24.2793   -4.3885 H         1 UNK         0.0767 
    104 H104       29.3268   23.4266   -2.2433 H         1 UNK         0.3013 
    105 H105       26.1247   27.2151    1.1293 H         1 UNK         0.3121 
    106 H106       23.3808   27.6747    1.9803 H         1 UNK         0.0774 
    107 H107       23.1199   28.5383   -0.3457 H         1 UNK         0.0815 
    108 H108       24.8533   28.4111   -0.6092 H         1 UNK         0.0815 
    109 H109       23.8909   26.9604   -0.3412 H         1 UNK         0.0815 
    110 H110       26.2180   29.7119    1.1698 H         1 UNK         0.2987 
    111 H111       24.9327   32.0958    2.4534 H         1 UNK         0.0949 
    112 H112       26.9831   31.9132    0.1680 H         1 UNK         0.0806 
    113 H113       25.3092   32.4283    0.0332 H         1 UNK         0.0806 
    114 H114       26.4454   33.4075    0.9396 H         1 UNK         0.0806 
    115 H115       28.2948   32.2333    1.7174 H         1 UNK         0.3010 
    116 H116       29.3492   31.0415    4.0925 H         1 UNK         0.0829 
    117 H117       30.2189   33.1987    5.0770 H         1 UNK         0.0813 
    118 H118       29.2818   34.1195    3.9077 H         1 UNK         0.0813 
    119 H119       28.4665   33.1544    5.1368 H         1 UNK         0.0813 
    120 H120       31.7359   31.2972    4.0946 H         1 UNK         0.3038 
    121 H121       33.1626   32.5613    2.0163 H         1 UNK         0.0769 
    122 H122       33.1567   29.4885    1.8612 H         1 UNK         0.0811 
    123 H123       33.9971   30.5971    0.7941 H         1 UNK         0.0811 
    124 H124       32.2521   30.4880    0.7249 H         1 UNK         0.0811 
    125 H125       35.5457   31.4830    2.1960 H         1 UNK         0.3204 
    126 H126       36.3789   31.6105    4.9785 H         1 UNK         0.0748 
    127 H127       38.6524   31.3813    3.9799 H         1 UNK         0.0771 
    128 H128       37.9473   31.0877    2.3960 H         1 UNK         0.0771 
    129 H129       37.7346   32.6497    3.1868 H         1 UNK         0.0771 
    130 H130       34.8637   29.7654    5.4425 H         1 UNK         0.2980 
    131 H131       35.3788   27.1075    4.7403 H         1 UNK         0.0545 
    132 H132       37.7234   25.6217    6.9758 H         1 UNK         0.3459 
    133 H133       36.5025   25.3409    5.7613 H         1 UNK         0.3459 
    134 H134       33.3132   28.2823    5.9539 H         1 UNK         0.0616 
    135 H135       34.1301   27.8669    7.4239 H         1 UNK         0.0616 
    136 H136       31.7005   27.0176    4.8818 H         1 UNK         0.0634 
    137 H137       32.8815   26.1538    3.9181 H         1 UNK         0.0634 
@<TRIPOS>BOND
     1    1    2 1    
     2    1   72 1    
     3    1   73 1    
     4    1   74 1    
     5    2    3 2    
     6    2    4 am   BACKBONE|DICT|INTERRES
     7    4    5 1    
     8    4   75 1    
     9    5    6 1    
    10    5   35 1    
    11    5   76 1    
    12    6    7 1    
    13    6   77 1    
    14    6   78 1    
    15    7    8 1    
    16    8    9 1    
    17    8   79 1    
    18    8   80 1    
    19    9   10 ar   
    20    9   14 ar   
    21   10   11 ar   
    22   10   81 1    
    23   11   12 ar   
    24   11   71 1    
    25   12   13 ar   
    26   12   82 1    
    27   13   14 ar   
    28   13   15 1    
    29   14   83 1    
    30   15   16 1    
    31   15   84 1    
    32   15   85 1    
    33   16   17 1    
    34   17   18 1    
    35   17   86 1    
    36   17   87 1    
    37   18   19 1    
    38   18   37 1    
    39   18   88 1    
    40   19   20 am   BACKBONE|DICT|INTERRES
    41   19   89 1    
    42   20   21 2    
    43   20   22 1    
    44   22   23 1    
    45   22   24 1    
    46   22   90 1    
    47   23   91 1    
    48   23   92 1    
    49   23   93 1    
    50   24   25 am   BACKBONE|DICT|INTERRES
    51   24   94 1    
    52   25   26 2    
    53   25   27 1    
    54   27   28 1    
    55   27   29 1    
    56   27   95 1    
    57   28   96 1    
    58   28   97 1    
    59   28   98 1    
    60   29   30 am   BACKBONE|DICT|INTERRES
    61   29   99 1    
    62   30   31 2    
    63   30   32 1    
    64   32   33 1    
    65   32   34 1    
    66   32  100 1    
    67   33  101 1    
    68   33  102 1    
    69   33  103 1    
    70   34   35 am   BACKBONE|DICT|INTERRES
    71   34  104 1    
    72   35   36 2    
    73   37   38 2    
    74   37   39 am   BACKBONE|DICT|INTERRES
    75   39   40 1    
    76   39  105 1    
    77   40   41 1    
    78   40   42 1    
    79   40  106 1    
    80   41  107 1    
    81   41  108 1    
    82   41  109 1    
    83   42   43 2    
    84   42   44 am   BACKBONE|DICT|INTERRES
    85   44   45 1    
    86   44  110 1    
    87   45   46 1    
    88   45   47 1    
    89   45  111 1    
    90   46  112 1    
    91   46  113 1    
    92   46  114 1    
    93   47   48 2    
    94   47   49 am   BACKBONE|DICT|INTERRES
    95   49   50 1    
    96   49  115 1    
    97   50   51 1    
    98   50   52 1    
    99   50  116 1    
   100   51  117 1    
   101   51  118 1    
   102   51  119 1    
   103   52   53 2    
   104   52   54 am   BACKBONE|DICT|INTERRES
   105   54   55 1    
   106   54  120 1    
   107   55   56 1    
   108   55   57 1    
   109   55  121 1    
   110   56  122 1    
   111   56  123 1    
   112   56  124 1    
   113   57   58 2    
   114   57   59 am   BACKBONE|DICT|INTERRES
   115   59   60 1    
   116   59  125 1    
   117   60   61 1    
   118   60   62 1    
   119   60  126 1    
   120   61  127 1    
   121   61  128 1    
   122   61  129 1    
   123   62   63 2    
   124   62   64 am   BACKBONE|DICT|INTERRES
   125   64   65 1    
   126   64  130 1    
   127   65   66 1    
   128   65   69 1    
   129   65  131 1    
   130   66   67 am   BACKBONE|DICT|INTERRES
   131   66   68 2    
   132   67  132 1    
   133   67  133 1    
   134   69   70 1    
   135   69  134 1    
   136   69  135 1    
   137   70   71 1    
   138   71  136 1    
   139   71  137 1    
@<TRIPOS>SUBSTRUCTURE
     1 UNK         1 GROUP             0       ****    0 ROOT    
