@<TRIPOS>MOLECULE
3R136
137   139    1
SMALL
USER_CHARGES


@<TRIPOS>ATOM
      1 CA         24.2013   19.6555    1.7603 C.3       0 UNK        -0.1979 
      2 C          25.5648   19.8427    1.1110 C.2       0 UNK         0.4864 
      3 O          25.9485   19.0452    0.2535 O.2       0 UNK        -0.5359 
      4 N          26.3018   20.8846    1.5180 N.am      1 UNK        -0.4318 
      5 CA         27.6021   21.2570    0.9546 C.3       1 UNK         0.0824 
      6 C6         28.3455   22.2481    1.8850 C.3       12 UNK        -0.0944 
      7 S7         30.1280   22.3607    1.5064 S.3       12 UNK        -0.2672 
      8 C8         30.8367   22.6511    3.1572 C.3       12 UNK         0.0333 
      9 C9         30.5599   24.0671    3.6386 C.ar      12 UNK        -0.0807 
     10 C10        31.4157   25.1093    3.2720 C.ar      12 UNK        -0.0894 
     11 C11        31.1680   26.4147    3.7043 C.ar      12 UNK        -0.0804 
     12 C12        30.0622   26.6736    4.5200 C.ar      12 UNK        -0.0824 
     13 C13        29.1897   25.6421    4.8801 C.ar      12 UNK        -0.0762 
     14 C14        29.4501   24.3390    4.4443 C.ar      12 UNK        -0.0782 
     15 C15        27.9641   25.9238    5.7383 C.3       12 UNK         0.0230 
     16 S16        26.4333   25.9088    4.7477 S.3       12 UNK        -0.2608 
     17 C17        26.3295   27.6305    4.1435 C.3       12 UNK        -0.0989 
     18 CA         27.1031   27.8725    2.8189 C.3       5 UNK         0.0716 
     19 N          26.7626   26.9324    1.7485 N.am      5 UNK        -0.4135 
     20 C          25.6206   26.8627    1.0512 C.2       4 UNK         0.5031 
     21 O          24.6076   27.5069    1.3283 O.2       4 UNK        -0.5229 
     22 CA         25.6292   25.9485   -0.1949 C.3       4 UNK         0.0329 
     23 CB         24.8360   26.5682   -1.3642 C.3       4 UNK        -0.2001 
     24 N          26.9703   25.5447   -0.6540 N.am      4 UNK        -0.4303 
     25 C          27.9910   26.3418   -1.0209 C.2       3 UNK         0.5044 
     26 O          27.9366   27.5720   -0.9861 O.2       3 UNK        -0.5152 
     27 CA         29.3238   25.6747   -1.4140 C.3       3 UNK         0.0319 
     28 CB         30.3743   25.9158   -0.3152 C.3       3 UNK        -0.2001 
     29 N          29.2122   24.2336   -1.6488 N.am      3 UNK        -0.4354 
     30 C          28.6465   23.6698   -2.7266 C.2       2 UNK         0.4964 
     31 O          28.2403   24.3069   -3.6984 O.2       2 UNK        -0.5047 
     32 CA         28.4733   22.1381   -2.7026 C.3       2 UNK         0.0288 
     33 CB         29.6182   21.4552   -3.4681 C.3       2 UNK        -0.2113 
     34 N          28.3919   21.5726   -1.3497 N.am      2 UNK        -0.4145 
     35 C          27.4305   21.8520   -0.4573 C.2       1 UNK         0.5006 
     36 O          26.4831   22.6081   -0.6885 O.2       1 UNK        -0.5103 
     37 C          27.0728   29.3511    2.3585 C.2       5 UNK         0.5055 
     38 O          26.9048   30.2427    3.1915 O.2       5 UNK        -0.5220 
     39 N          27.2650   29.6049    1.0531 N.am      6 UNK        -0.4450 
     40 CA         27.2740   30.9504    0.4693 C.3       6 UNK         0.0367 
     41 CB         27.0925   30.8441   -1.0532 C.3       6 UNK        -0.1929 
     42 C          28.5506   31.7404    0.8052 C.2       6 UNK         0.5070 
     43 O          28.5037   32.9686    0.8691 O.2       6 UNK        -0.5237 
     44 N          29.6587   31.0216    1.0234 N.am      7 UNK        -0.4739 
     45 CA         30.9738   31.5651    1.3711 C.3       7 UNK         0.0276 
     46 CB         32.0227   30.9491    0.4247 C.3       7 UNK        -0.1927 
     47 C          31.3257   31.3075    2.8477 C.2       7 UNK         0.5013 
     48 O          32.5113   31.2347    3.1733 O.2       7 UNK        -0.5193 
     49 N          30.3109   31.1235    3.7076 N.am      8 UNK        -0.4253 
     50 CA         30.4554   30.7967    5.1310 C.3       8 UNK         0.0242 
     51 CB         29.0656   30.6487    5.7689 C.3       8 UNK        -0.2000 
     52 C          31.3031   31.8144    5.9144 C.2       8 UNK         0.4948 
     53 O          31.2436   33.0129    5.6308 O.2       8 UNK        -0.5275 
     54 N          32.0707   31.2948    6.8839 N.am      9 UNK        -0.4246 
     55 CA         33.0747   31.9941    7.6994 C.3       9 UNK         0.0261 
     56 CB         32.4430   33.1283    8.5362 C.3       9 UNK        -0.1959 
     57 C          34.3127   32.4554    6.8992 C.2       9 UNK         0.5033 
     58 O          35.0402   33.3363    7.3622 O.2       9 UNK        -0.5390 
     59 N          34.5553   31.8327    5.7392 N.am      10 UNK        -0.4215 
     60 CA         35.7300   32.0356    4.8956 C.3       10 UNK         0.0240 
     61 CB         35.5112   33.2139    3.9269 C.3       10 UNK        -0.1982 
     62 C          36.0446   30.7282    4.1626 C.2       10 UNK         0.4970 
     63 O          37.1024   30.1433    4.3961 O.2       10 UNK        -0.4916 
     64 N          35.0992   30.2835    3.3243 N.am      11 UNK        -0.4279 
     65 CA         35.0996   29.0120    2.5815 C.3       11 UNK         0.1003 
     66 C          36.2755   28.8247    1.5744 C.2       11 UNK         0.5709 
     67 N          36.9210   29.8903    1.1151 N.am      11 UNK        -0.7358 
     68 O          36.5884   27.7061    1.1729 O.2       11 UNK        -0.4999 
     69 C69        34.8727   27.7797    3.5056 C.3       12 UNK        -0.0954 
     70 S70        33.3514   27.9155    4.5079 S.3       12 UNK        -0.2268 
     71 C71        32.0763   27.5484    3.2617 C.3       12 UNK         0.0203 
     72 H72        23.4173   19.7010    1.0049 H         1 UNK         0.0888 
     73 H73        24.1485   18.6829    2.2489 H         1 UNK         0.0888 
     74 H74        23.9966   20.4218    2.5077 H         1 UNK         0.0888 
     75 H75        25.9200   21.5220    2.2018 H         1 UNK         0.3017 
     76 H76        28.1942   20.3418    0.8778 H         1 UNK         0.0873 
     77 H77        28.2431   21.9125    2.9180 H         1 UNK         0.0745 
     78 H78        27.9042   23.2466    1.8492 H         1 UNK         0.0745 
     79 H79        30.4493   21.9170    3.8654 H         1 UNK         0.0705 
     80 H80        31.9140   22.4846    3.1096 H         1 UNK         0.0705 
     81 H81        32.2691   24.9049    2.6396 H         1 UNK         0.1334 
     82 H82        29.8694   27.6819    4.8572 H         1 UNK         0.1417 
     83 H83        28.7788   23.5391    4.7252 H         1 UNK         0.1562 
     84 H84        28.0628   26.8727    6.2676 H         1 UNK         0.0748 
     85 H85        27.8864   25.1562    6.5097 H         1 UNK         0.0748 
     86 H86        26.6840   28.2964    4.9314 H         1 UNK         0.0940 
     87 H87        25.2742   27.8728    4.0063 H         1 UNK         0.0940 
     88 H88        28.1552   27.6872    3.0197 H         1 UNK         0.0703 
     89 H89        27.5184   26.3382    1.4438 H         1 UNK         0.3081 
     90 H90        25.1219   25.0296    0.1026 H         1 UNK         0.0719 
     91 H91        25.2565   27.5254   -1.6747 H         1 UNK         0.0809 
     92 H92        24.8290   25.9078   -2.2313 H         1 UNK         0.0809 
     93 H93        23.7962   26.7446   -1.0861 H         1 UNK         0.0809 
     94 H94        27.1008   24.5404   -0.7194 H         1 UNK         0.2990 
     95 H95        29.6695   26.1515   -2.3336 H         1 UNK         0.0690 
     96 H96        31.3425   25.4985   -0.5924 H         1 UNK         0.0788 
     97 H97        30.0771   25.4679    0.6340 H         1 UNK         0.0788 
     98 H98        30.5233   26.9822   -0.1395 H         1 UNK         0.0788 
     99 H99        29.5389   23.6284   -0.9084 H         1 UNK         0.2993 
    100 H100       27.5341   21.9124   -3.2126 H         1 UNK         0.0949 
    101 H101       29.4630   20.3783   -3.5374 H         1 UNK         0.0767 
    102 H102       29.6878   21.8363   -4.4882 H         1 UNK         0.0767 
    103 H103       30.5833   21.6268   -2.9894 H         1 UNK         0.0767 
    104 H104       29.1474   20.9622   -1.0710 H         1 UNK         0.3013 
    105 H105       27.4139   28.8320    0.4082 H         1 UNK         0.3121 
    106 H106       26.4251   31.5056    0.8744 H         1 UNK         0.0774 
    107 H107       27.0457   31.8333   -1.5106 H         1 UNK         0.0815 
    108 H108       27.9179   30.3066   -1.5218 H         1 UNK         0.0815 
    109 H109       26.1683   30.3246   -1.3074 H         1 UNK         0.0815 
    110 H110       29.5904   30.0165    0.9534 H         1 UNK         0.2987 
    111 H111       30.9873   32.6482    1.2315 H         1 UNK         0.0949 
    112 H112       33.0107   31.3788    0.5958 H         1 UNK         0.0806 
    113 H113       32.1066   29.8704    0.5622 H         1 UNK         0.0806 
    114 H114       31.7708   31.1352   -0.6194 H         1 UNK         0.0806 
    115 H115       29.3682   31.2289    3.3600 H         1 UNK         0.3010 
    116 H116       30.9603   29.8307    5.1818 H         1 UNK         0.0829 
    117 H117       28.5082   29.8303    5.3165 H         1 UNK         0.0813 
    118 H118       29.1402   30.4330    6.8356 H         1 UNK         0.0813 
    119 H119       28.4743   31.5590    5.6604 H         1 UNK         0.0813 
    120 H120       32.0154   30.2977    7.0449 H         1 UNK         0.3038 
    121 H121       33.4483   31.2492    8.4036 H         1 UNK         0.0769 
    122 H122       33.1529   33.5142    9.2689 H         1 UNK         0.0811 
    123 H123       31.5702   32.7780    9.0869 H         1 UNK         0.0811 
    124 H124       32.1344   33.9695    7.9151 H         1 UNK         0.0811 
    125 H125       33.9104   31.1169    5.4317 H         1 UNK         0.3204 
    126 H126       36.5902   32.2650    5.5286 H         1 UNK         0.0748 
    127 H127       36.3601   33.3290    3.2518 H         1 UNK         0.0771 
    128 H128       34.6179   33.0812    3.3154 H         1 UNK         0.0771 
    129 H129       35.4011   34.1522    4.4707 H         1 UNK         0.0771 
    130 H130       34.2393   30.8213    3.2222 H         1 UNK         0.2980 
    131 H131       34.2260   29.0793    1.9332 H         1 UNK         0.0545 
    132 H132       36.6689   30.8136    1.4279 H         1 UNK         0.3459 
    133 H133       37.6732   29.7660    0.4561 H         1 UNK         0.3459 
    134 H134       34.8132   26.8575    2.9250 H         1 UNK         0.0616 
    135 H135       35.7185   27.6553    4.1833 H         1 UNK         0.0616 
    136 H136       32.5343   27.3027    2.3027 H         1 UNK         0.0634 
    137 H137       31.4831   28.4443    3.0851 H         1 UNK         0.0634 
@<TRIPOS>BOND
     1    1    2 1    
     2    1   72 1    
     3    1   73 1    
     4    1   74 1    
     5    2    3 2    
     6    2    4 am   BACKBONE|DICT|INTERRES
     7    4    5 1    
     8    4   75 1    
     9    5    6 1    
    10    5   35 1    
    11    5   76 1    
    12    6    7 1    
    13    6   77 1    
    14    6   78 1    
    15    7    8 1    
    16    8    9 1    
    17    8   79 1    
    18    8   80 1    
    19    9   10 ar   
    20    9   14 ar   
    21   10   11 ar   
    22   10   81 1    
    23   11   12 ar   
    24   11   71 1    
    25   12   13 ar   
    26   12   82 1    
    27   13   14 ar   
    28   13   15 1    
    29   14   83 1    
    30   15   16 1    
    31   15   84 1    
    32   15   85 1    
    33   16   17 1    
    34   17   18 1    
    35   17   86 1    
    36   17   87 1    
    37   18   19 1    
    38   18   37 1    
    39   18   88 1    
    40   19   20 am   BACKBONE|DICT|INTERRES
    41   19   89 1    
    42   20   21 2    
    43   20   22 1    
    44   22   23 1    
    45   22   24 1    
    46   22   90 1    
    47   23   91 1    
    48   23   92 1    
    49   23   93 1    
    50   24   25 am   BACKBONE|DICT|INTERRES
    51   24   94 1    
    52   25   26 2    
    53   25   27 1    
    54   27   28 1    
    55   27   29 1    
    56   27   95 1    
    57   28   96 1    
    58   28   97 1    
    59   28   98 1    
    60   29   30 am   BACKBONE|DICT|INTERRES
    61   29   99 1    
    62   30   31 2    
    63   30   32 1    
    64   32   33 1    
    65   32   34 1    
    66   32  100 1    
    67   33  101 1    
    68   33  102 1    
    69   33  103 1    
    70   34   35 am   BACKBONE|DICT|INTERRES
    71   34  104 1    
    72   35   36 2    
    73   37   38 2    
    74   37   39 am   BACKBONE|DICT|INTERRES
    75   39   40 1    
    76   39  105 1    
    77   40   41 1    
    78   40   42 1    
    79   40  106 1    
    80   41  107 1    
    81   41  108 1    
    82   41  109 1    
    83   42   43 2    
    84   42   44 am   BACKBONE|DICT|INTERRES
    85   44   45 1    
    86   44  110 1    
    87   45   46 1    
    88   45   47 1    
    89   45  111 1    
    90   46  112 1    
    91   46  113 1    
    92   46  114 1    
    93   47   48 2    
    94   47   49 am   BACKBONE|DICT|INTERRES
    95   49   50 1    
    96   49  115 1    
    97   50   51 1    
    98   50   52 1    
    99   50  116 1    
   100   51  117 1    
   101   51  118 1    
   102   51  119 1    
   103   52   53 2    
   104   52   54 am   BACKBONE|DICT|INTERRES
   105   54   55 1    
   106   54  120 1    
   107   55   56 1    
   108   55   57 1    
   109   55  121 1    
   110   56  122 1    
   111   56  123 1    
   112   56  124 1    
   113   57   58 2    
   114   57   59 am   BACKBONE|DICT|INTERRES
   115   59   60 1    
   116   59  125 1    
   117   60   61 1    
   118   60   62 1    
   119   60  126 1    
   120   61  127 1    
   121   61  128 1    
   122   61  129 1    
   123   62   63 2    
   124   62   64 am   BACKBONE|DICT|INTERRES
   125   64   65 1    
   126   64  130 1    
   127   65   66 1    
   128   65   69 1    
   129   65  131 1    
   130   66   67 am   BACKBONE|DICT|INTERRES
   131   66   68 2    
   132   67  132 1    
   133   67  133 1    
   134   69   70 1    
   135   69  134 1    
   136   69  135 1    
   137   70   71 1    
   138   71  136 1    
   139   71  137 1    
@<TRIPOS>SUBSTRUCTURE
     1 UNK         1 GROUP             0       ****    0 ROOT    
