@<TRIPOS>MOLECULE
3R136
137   139    1
SMALL
USER_CHARGES


@<TRIPOS>ATOM
      1 CA         26.7996   20.8835   -3.4967 C.3       0 UNK        -0.1979 
      2 C          27.4294   22.0285   -2.7185 C.2       0 UNK         0.4864 
      3 O          26.9259   23.1525   -2.7632 O.2       0 UNK        -0.5359 
      4 N          28.5162   21.7543   -1.9824 N.am      1 UNK        -0.4318 
      5 CA         29.2759   22.7427   -1.2043 C.3       1 UNK         0.0824 
      6 C6         30.7364   22.2967   -0.9488 C.3       12 UNK        -0.0944 
      7 S7         30.8982   20.8234    0.1155 S.3       12 UNK        -0.2672 
      8 C8         32.4387   21.2050    1.0143 C.3       12 UNK         0.0333 
      9 C9         32.2708   22.3464    2.0103 C.ar      12 UNK        -0.0807 
     10 C10        32.9238   23.5686    1.8124 C.ar      12 UNK        -0.0894 
     11 C11        32.7900   24.6031    2.7442 C.ar      12 UNK        -0.0804 
     12 C12        32.0021   24.4016    3.8822 C.ar      12 UNK        -0.0824 
     13 C13        31.3214   23.1954    4.0813 C.ar      12 UNK        -0.0762 
     14 C14        31.4716   22.1697    3.1434 C.ar      12 UNK        -0.0782 
     15 C15        30.4274   22.9675    5.3006 C.3       12 UNK         0.0230 
     16 S16        29.4514   24.4220    5.8281 S.3       12 UNK        -0.2608 
     17 C17        28.6189   24.9287    4.2849 C.3       12 UNK        -0.0989 
     18 CA         29.0850   26.3370    3.8288 C.3       5 UNK         0.0716 
     19 N          29.2091   26.4365    2.3727 N.am      5 UNK        -0.4135 
     20 C          29.7900   27.4543    1.7251 C.2       4 UNK         0.5031 
     21 O          30.3693   28.3744    2.2940 O.2       4 UNK        -0.5229 
     22 CA         29.6945   27.4678    0.1918 C.3       4 UNK         0.0329 
     23 CB         30.8810   26.7184   -0.4371 C.3       4 UNK        -0.2001 
     24 N          28.4249   26.9124   -0.2848 N.am      4 UNK        -0.4303 
     25 C          27.2330   27.5043   -0.1122 C.2       3 UNK         0.5044 
     26 O          27.0896   28.6160    0.3951 O.2       3 UNK        -0.5152 
     27 CA         25.9886   26.6964   -0.5223 C.3       3 UNK         0.0319 
     28 CB         25.7472   26.7978   -2.0363 C.3       3 UNK        -0.2001 
     29 N          26.0792   25.2866   -0.1334 N.am      3 UNK        -0.4354 
     30 C          26.1291   24.8493    1.1353 C.2       2 UNK         0.4964 
     31 O          26.0195   25.5851    2.1160 O.2       2 UNK        -0.5047 
     32 CA         26.4224   23.3506    1.3471 C.3       2 UNK         0.0288 
     33 CB         25.1160   22.5425    1.3728 C.3       2 UNK        -0.2113 
     34 N          27.3225   22.7939    0.3308 N.am      2 UNK        -0.4145 
     35 C          28.5583   23.2481    0.0700 C.2       1 UNK         0.5006 
     36 O          29.1066   24.1022    0.7646 O.2       1 UNK        -0.5103 
     37 C          28.2066   27.4617    4.4185 C.2       5 UNK         0.5055 
     38 O          28.5658   28.0367    5.4475 O.2       5 UNK        -0.5220 
     39 N          27.0901   27.7737    3.7438 N.am      6 UNK        -0.4450 
     40 CA         26.1981   28.8849    4.0832 C.3       6 UNK         0.0367 
     41 CB         24.8887   28.7527    3.2894 C.3       6 UNK        -0.1929 
     42 C          26.8416   30.2642    3.8502 C.2       6 UNK         0.5070 
     43 O          26.6505   31.1680    4.6656 O.2       6 UNK        -0.5237 
     44 N          27.5988   30.4080    2.7544 N.am      7 UNK        -0.4739 
     45 CA         28.3473   31.6144    2.3944 C.3       7 UNK         0.0276 
     46 CB         28.6608   31.5718    0.8877 C.3       7 UNK        -0.1927 
     47 C          29.6223   31.7576    3.2467 C.2       7 UNK         0.5013 
     48 O          30.7221   31.5383    2.7424 O.2       7 UNK        -0.5193 
     49 N          29.4465   32.1287    4.5226 N.am      8 UNK        -0.4253 
     50 CA         30.4490   32.1801    5.6002 C.3       8 UNK         0.0242 
     51 CB         29.8244   32.8813    6.8177 C.3       8 UNK        -0.2000 
     52 C          31.8220   32.8087    5.2772 C.2       8 UNK         0.4948 
     53 O          32.8059   32.4532    5.9267 O.2       8 UNK        -0.5275 
     54 N          31.8798   33.7216    4.2986 N.am      9 UNK        -0.4246 
     55 CA         33.1148   34.3360    3.8050 C.3       9 UNK         0.0261 
     56 CB         32.7566   35.5553    2.9395 C.3       9 UNK        -0.1959 
     57 C          34.0267   33.3722    3.0176 C.2       9 UNK         0.5033 
     58 O          35.2384   33.5944    2.9916 O.2       9 UNK        -0.5390 
     59 N          33.4509   32.3427    2.3836 N.am      10 UNK        -0.4215 
     60 CA         34.1430   31.3637    1.5440 C.3       10 UNK         0.0240 
     61 CB         34.5312   32.0008    0.1914 C.3       10 UNK        -0.1982 
     62 C          33.2020   30.1586    1.3778 C.2       10 UNK         0.4970 
     63 O          32.5704   30.0378    0.3284 O.2       10 UNK        -0.4916 
     64 N          33.0251   29.3079    2.3958 N.am      11 UNK        -0.4279 
     65 CA         33.7778   29.1947    3.6557 C.3       11 UNK         0.1003 
     66 C          32.8851   28.9736    4.9121 C.2       11 UNK         0.5709 
     67 N          31.5698   28.8619    4.7858 N.am      11 UNK        -0.7358 
     68 O          33.3981   28.9167    6.0269 O.2       11 UNK        -0.4999 
     69 C69        34.9514   28.1746    3.5110 C.3       12 UNK        -0.0954 
     70 S70        34.5786   26.4140    3.8620 S.3       12 UNK        -0.2268 
     71 C71        33.4519   25.9550    2.5069 C.3       12 UNK         0.0203 
     72 H72        27.3374   19.9469   -3.3505 H         1 UNK         0.0888 
     73 H73        25.7677   20.7362   -3.1792 H         1 UNK         0.0888 
     74 H74        26.7991   21.1115   -4.5622 H         1 UNK         0.0888 
     75 H75        28.8791   20.8111   -1.9541 H         1 UNK         0.3017 
     76 H76        29.3502   23.6301   -1.8369 H         1 UNK         0.0873 
     77 H77        31.2254   22.0786   -1.8995 H         1 UNK         0.0745 
     78 H78        31.3020   23.1244   -0.5188 H         1 UNK         0.0745 
     79 H79        33.2279   21.4275    0.2943 H         1 UNK         0.0705 
     80 H80        32.7605   20.3117    1.5513 H         1 UNK         0.0705 
     81 H81        33.5326   23.7157    0.9309 H         1 UNK         0.1334 
     82 H82        31.9105   25.1970    4.6081 H         1 UNK         0.1417 
     83 H83        30.9619   21.2268    3.2887 H         1 UNK         0.1562 
     84 H84        31.0527   22.6470    6.1347 H         1 UNK         0.0748 
     85 H85        29.7300   22.1508    5.1077 H         1 UNK         0.0748 
     86 H86        27.5370   24.8802    4.4254 H         1 UNK         0.0940 
     87 H87        28.8400   24.1867    3.5168 H         1 UNK         0.0940 
     88 H88        30.0916   26.5097    4.2110 H         1 UNK         0.0703 
     89 H89        28.8730   25.6508    1.8233 H         1 UNK         0.3081 
     90 H90        29.7486   28.5083   -0.1342 H         1 UNK         0.0719 
     91 H91        30.9464   25.6858   -0.0955 H         1 UNK         0.0809 
     92 H92        30.8175   26.7123   -1.5252 H         1 UNK         0.0809 
     93 H93        31.8218   27.2033   -0.1726 H         1 UNK         0.0809 
     94 H94        28.4518   25.9798   -0.6681 H         1 UNK         0.2990 
     95 H95        25.1281   27.1311   -0.0091 H         1 UNK         0.0690 
     96 H96        26.5557   26.3402   -2.6082 H         1 UNK         0.0788 
     97 H97        25.6724   27.8399   -2.3507 H         1 UNK         0.0788 
     98 H98        24.8169   26.3066   -2.3222 H         1 UNK         0.0788 
     99 H99        26.1766   24.6124   -0.8821 H         1 UNK         0.2993 
    100 H100       26.9115   23.2440    2.3170 H         1 UNK         0.0949 
    101 H101       24.5932   22.5870    0.4164 H         1 UNK         0.0767 
    102 H102       25.3027   21.4940    1.6059 H         1 UNK         0.0767 
    103 H103       24.4360   22.9260    2.1351 H         1 UNK         0.0767 
    104 H104       26.9376   22.0955   -0.2878 H         1 UNK         0.3013 
    105 H105       26.8270   27.1976    2.9495 H         1 UNK         0.3121 
    106 H106       25.9589   28.8083    5.1461 H         1 UNK         0.0774 
    107 H107       24.1915   29.5493    3.5524 H         1 UNK         0.0815 
    108 H108       25.0596   28.8104    2.2140 H         1 UNK         0.0815 
    109 H109       24.3928   27.8044    3.4977 H         1 UNK         0.0815 
    110 H110       27.6745   29.6252    2.1132 H         1 UNK         0.2987 
    111 H111       27.7198   32.4888    2.5799 H         1 UNK         0.0949 
    112 H112       29.2897   30.7180    0.6332 H         1 UNK         0.0806 
    113 H113       27.7497   31.5044    0.2929 H         1 UNK         0.0806 
    114 H114       29.1915   32.4711    0.5730 H         1 UNK         0.0806 
    115 H115       28.4815   32.2171    4.8219 H         1 UNK         0.3010 
    116 H116       30.6441   31.1455    5.8827 H         1 UNK         0.0829 
    117 H117       30.5217   32.9088    7.6565 H         1 UNK         0.0813 
    118 H118       29.5471   33.9112    6.5895 H         1 UNK         0.0813 
    119 H119       28.9305   32.3601    7.1614 H         1 UNK         0.0813 
    120 H120       31.0267   33.9459    3.8077 H         1 UNK         0.3038 
    121 H121       33.6830   34.6883    4.6686 H         1 UNK         0.0769 
    122 H122       33.6568   36.0558    2.5796 H         1 UNK         0.0811 
    123 H123       32.1841   36.2905    3.5053 H         1 UNK         0.0811 
    124 H124       32.1705   35.2713    2.0645 H         1 UNK         0.0811 
    125 H125       32.4490   32.1788    2.4991 H         1 UNK         0.3204 
    126 H126       35.0629   31.0337    2.0290 H         1 UNK         0.0748 
    127 H127       34.9801   31.2613   -0.4729 H         1 UNK         0.0771 
    128 H128       33.6642   32.4197   -0.3211 H         1 UNK         0.0771 
    129 H129       35.2601   32.8009    0.3202 H         1 UNK         0.0771 
    130 H130       32.2305   28.6822    2.3210 H         1 UNK         0.2980 
    131 H131       34.2276   30.1633    3.8679 H         1 UNK         0.0545 
    132 H132       31.1207   28.9086    3.8747 H         1 UNK         0.3459 
    133 H133       31.0029   28.7130    5.6052 H         1 UNK         0.3459 
    134 H134       35.4048   28.2444    2.5210 H         1 UNK         0.0616 
    135 H135       35.7430   28.4593    4.2058 H         1 UNK         0.0616 
    136 H136       34.0003   25.9692    1.5639 H         1 UNK         0.0634 
    137 H137       32.6597   26.6957    2.4220 H         1 UNK         0.0634 
@<TRIPOS>BOND
     1    1    2 1    
     2    1   72 1    
     3    1   73 1    
     4    1   74 1    
     5    2    3 2    
     6    2    4 am   BACKBONE|DICT|INTERRES
     7    4    5 1    
     8    4   75 1    
     9    5    6 1    
    10    5   35 1    
    11    5   76 1    
    12    6    7 1    
    13    6   77 1    
    14    6   78 1    
    15    7    8 1    
    16    8    9 1    
    17    8   79 1    
    18    8   80 1    
    19    9   10 ar   
    20    9   14 ar   
    21   10   11 ar   
    22   10   81 1    
    23   11   12 ar   
    24   11   71 1    
    25   12   13 ar   
    26   12   82 1    
    27   13   14 ar   
    28   13   15 1    
    29   14   83 1    
    30   15   16 1    
    31   15   84 1    
    32   15   85 1    
    33   16   17 1    
    34   17   18 1    
    35   17   86 1    
    36   17   87 1    
    37   18   19 1    
    38   18   37 1    
    39   18   88 1    
    40   19   20 am   BACKBONE|DICT|INTERRES
    41   19   89 1    
    42   20   21 2    
    43   20   22 1    
    44   22   23 1    
    45   22   24 1    
    46   22   90 1    
    47   23   91 1    
    48   23   92 1    
    49   23   93 1    
    50   24   25 am   BACKBONE|DICT|INTERRES
    51   24   94 1    
    52   25   26 2    
    53   25   27 1    
    54   27   28 1    
    55   27   29 1    
    56   27   95 1    
    57   28   96 1    
    58   28   97 1    
    59   28   98 1    
    60   29   30 am   BACKBONE|DICT|INTERRES
    61   29   99 1    
    62   30   31 2    
    63   30   32 1    
    64   32   33 1    
    65   32   34 1    
    66   32  100 1    
    67   33  101 1    
    68   33  102 1    
    69   33  103 1    
    70   34   35 am   BACKBONE|DICT|INTERRES
    71   34  104 1    
    72   35   36 2    
    73   37   38 2    
    74   37   39 am   BACKBONE|DICT|INTERRES
    75   39   40 1    
    76   39  105 1    
    77   40   41 1    
    78   40   42 1    
    79   40  106 1    
    80   41  107 1    
    81   41  108 1    
    82   41  109 1    
    83   42   43 2    
    84   42   44 am   BACKBONE|DICT|INTERRES
    85   44   45 1    
    86   44  110 1    
    87   45   46 1    
    88   45   47 1    
    89   45  111 1    
    90   46  112 1    
    91   46  113 1    
    92   46  114 1    
    93   47   48 2    
    94   47   49 am   BACKBONE|DICT|INTERRES
    95   49   50 1    
    96   49  115 1    
    97   50   51 1    
    98   50   52 1    
    99   50  116 1    
   100   51  117 1    
   101   51  118 1    
   102   51  119 1    
   103   52   53 2    
   104   52   54 am   BACKBONE|DICT|INTERRES
   105   54   55 1    
   106   54  120 1    
   107   55   56 1    
   108   55   57 1    
   109   55  121 1    
   110   56  122 1    
   111   56  123 1    
   112   56  124 1    
   113   57   58 2    
   114   57   59 am   BACKBONE|DICT|INTERRES
   115   59   60 1    
   116   59  125 1    
   117   60   61 1    
   118   60   62 1    
   119   60  126 1    
   120   61  127 1    
   121   61  128 1    
   122   61  129 1    
   123   62   63 2    
   124   62   64 am   BACKBONE|DICT|INTERRES
   125   64   65 1    
   126   64  130 1    
   127   65   66 1    
   128   65   69 1    
   129   65  131 1    
   130   66   67 am   BACKBONE|DICT|INTERRES
   131   66   68 2    
   132   67  132 1    
   133   67  133 1    
   134   69   70 1    
   135   69  134 1    
   136   69  135 1    
   137   70   71 1    
   138   71  136 1    
   139   71  137 1    
@<TRIPOS>SUBSTRUCTURE
     1 UNK         1 GROUP             0       ****    0 ROOT    
