@<TRIPOS>MOLECULE
3R136
137   139    1
SMALL
USER_CHARGES


@<TRIPOS>ATOM
      1 CA         29.8074   28.4744    0.9788 C.3       0 UNK        -0.1979 
      2 C          29.7660   26.9661    0.7957 C.2       0 UNK         0.4864 
      3 O          28.7440   26.4403    0.3474 O.2       0 UNK        -0.5359 
      4 N          30.8619   26.2735    1.1416 N.am      1 UNK        -0.4318 
      5 CA         31.0129   24.8193    1.0248 C.3       1 UNK         0.0824 
      6 C6         32.3580   24.3251    1.6163 C.3       12 UNK        -0.0944 
      7 S7         32.3266   22.5391    2.0058 S.3       12 UNK        -0.2672 
      8 C8         32.0268   22.5310    3.8044 C.3       12 UNK         0.0333 
      9 C9         30.7752   23.3139    4.1729 C.ar      12 UNK        -0.0807 
     10 C10        30.8880   24.5532    4.8074 C.ar      12 UNK        -0.0894 
     11 C11        29.7535   25.3202    5.0805 C.ar      12 UNK        -0.0804 
     12 C12        28.4913   24.8087    4.7616 C.ar      12 UNK        -0.0824 
     13 C13        28.3606   23.5635    4.1361 C.ar      12 UNK        -0.0762 
     14 C14        29.5088   22.8192    3.8474 C.ar      12 UNK        -0.0782 
     15 C15        26.9854   23.0105    3.7807 C.3       12 UNK         0.0230 
     16 S16        26.2734   23.8072    2.3005 S.3       12 UNK        -0.2608 
     17 C17        25.4975   25.2956    3.0198 C.3       12 UNK        -0.0989 
     18 CA         26.2516   26.5927    2.6113 C.3       5 UNK         0.0716 
     19 N          26.0453   26.9736    1.2050 N.am      5 UNK        -0.4135 
     20 C          24.8934   27.3833    0.6500 C.2       4 UNK         0.5031 
     21 O          23.8236   27.4369    1.2576 O.2       4 UNK        -0.5229 
     22 CA         24.9316   27.8808   -0.8067 C.3       4 UNK         0.0329 
     23 CB         24.9112   29.4189   -0.8391 C.3       4 UNK        -0.2001 
     24 N          26.0797   27.4094   -1.5836 N.am      4 UNK        -0.4303 
     25 C          26.2342   26.1592   -2.0367 C.2       3 UNK         0.5044 
     26 O          25.4358   25.2485   -1.8096 O.2       3 UNK        -0.5152 
     27 CA         27.4718   25.8675   -2.8980 C.3       3 UNK         0.0319 
     28 CB         28.3761   27.0886   -3.1728 C.3       3 UNK        -0.2001 
     29 N          28.2477   24.8339   -2.2261 N.am      3 UNK        -0.4354 
     30 C          28.7734   23.7470   -2.8043 C.2       2 UNK         0.4964 
     31 O          28.6714   23.4996   -4.0075 O.2       2 UNK        -0.5047 
     32 CA         29.5238   22.7556   -1.8877 C.3       2 UNK         0.0288 
     33 CB         30.6984   22.0547   -2.6046 C.3       2 UNK        -0.2113 
     34 N          29.9592   23.3375   -0.6104 N.am      2 UNK        -0.4145 
     35 C          30.8301   24.3429   -0.4299 C.2       1 UNK         0.5006 
     36 O          31.4584   24.8982   -1.3351 O.2       1 UNK        -0.5103 
     37 C          26.0450   27.7622    3.6073 C.2       5 UNK         0.5055 
     38 O          25.9198   27.5249    4.8105 O.2       5 UNK        -0.5220 
     39 N          26.0680   29.0072    3.1107 N.am      6 UNK        -0.4450 
     40 CA         26.1861   30.2221    3.9169 C.3       6 UNK         0.0367 
     41 CB         25.7618   31.4295    3.0654 C.3       6 UNK        -0.1929 
     42 C          27.6398   30.3794    4.3865 C.2       6 UNK         0.5070 
     43 O          28.5452   29.9225    3.6872 O.2       6 UNK        -0.5237 
     44 N          27.8474   31.0391    5.5332 N.am      7 UNK        -0.4739 
     45 CA         29.1469   31.2185    6.1986 C.3       7 UNK         0.0276 
     46 CB         28.8996   31.6153    7.6663 C.3       7 UNK        -0.1927 
     47 C          30.1059   32.1919    5.4743 C.2       7 UNK         0.5013 
     48 O          30.5933   33.1509    6.0770 O.2       7 UNK        -0.5193 
     49 N          30.3545   31.9257    4.1901 N.am      8 UNK        -0.4253 
     50 CA         31.3356   32.5931    3.3400 C.3       8 UNK         0.0242 
     51 CB         30.8986   32.4155    1.8748 C.3       8 UNK        -0.2000 
     52 C          32.7393   32.0058    3.5607 C.2       8 UNK         0.4948 
     53 O          32.8828   30.9422    4.1680 O.2       8 UNK        -0.5275 
     54 N          33.7546   32.6751    2.9968 N.am      9 UNK        -0.4246 
     55 CA         35.1725   32.2863    3.0531 C.3       9 UNK         0.0261 
     56 CB         36.0164   33.3768    2.3719 C.3       9 UNK        -0.1959 
     57 C          35.5013   30.9003    2.4571 C.2       9 UNK         0.5033 
     58 O          36.5746   30.3662    2.7393 O.2       9 UNK        -0.5390 
     59 N          34.5824   30.3395    1.6586 N.am      10 UNK        -0.4215 
     60 CA         34.6369   28.9729    1.1386 C.3       10 UNK         0.0240 
     61 CB         33.5971   28.8193    0.0160 C.3       10 UNK        -0.1982 
     62 C          34.4341   27.8888    2.2157 C.2       10 UNK         0.4970 
     63 O          34.8593   26.7556    1.9901 O.2       10 UNK        -0.4916 
     64 N          33.7878   28.2225    3.3433 N.am      11 UNK        -0.4279 
     65 CA         33.6381   27.3195    4.4940 C.3       11 UNK         0.1003 
     66 C          34.9803   27.1357    5.2519 C.2       11 UNK         0.5709 
     67 N          35.3125   25.9141    5.6473 N.am      11 UNK        -0.7358 
     68 O          35.6997   28.0950    5.5228 O.2       11 UNK        -0.4999 
     69 C69        32.5232   27.7851    5.4654 C.3       12 UNK        -0.0954 
     70 S70        30.8736   27.8412    4.6860 S.3       12 UNK        -0.2268 
     71 C71        29.8875   26.6996    5.7147 C.3       12 UNK         0.0203 
     72 H72        28.8274   28.8425    1.2790 H         1 UNK         0.0888 
     73 H73        30.5206   28.7668    1.7493 H         1 UNK         0.0888 
     74 H74        30.0803   28.9612    0.0433 H         1 UNK         0.0888 
     75 H75        31.6653   26.7669    1.4988 H         1 UNK         0.3017 
     76 H76        30.2002   24.4037    1.6228 H         1 UNK         0.0873 
     77 H77        32.5948   24.8706    2.5283 H         1 UNK         0.0745 
     78 H78        33.1871   24.5275    0.9350 H         1 UNK         0.0745 
     79 H79        32.9034   22.9350    4.3132 H         1 UNK         0.0705 
     80 H80        31.9236   21.4994    4.1437 H         1 UNK         0.0705 
     81 H81        31.8630   24.9360    5.0668 H         1 UNK         0.1334 
     82 H82        27.6091   25.3866    4.9947 H         1 UNK         0.1417 
     83 H83        29.4225   21.8601    3.3545 H         1 UNK         0.1562 
     84 H84        26.3100   23.1101    4.6315 H         1 UNK         0.0748 
     85 H85        27.0545   21.9391    3.5864 H         1 UNK         0.0748 
     86 H86        25.4549   25.1727    4.1021 H         1 UNK         0.0940 
     87 H87        24.4550   25.3335    2.7024 H         1 UNK         0.0940 
     88 H88        27.3194   26.3843    2.6881 H         1 UNK         0.0703 
     89 H89        26.8810   26.9140    0.6288 H         1 UNK         0.3081 
     90 H90        24.0227   27.5195   -1.2931 H         1 UNK         0.0719 
     91 H91        24.0553   29.8116   -0.2878 H         1 UNK         0.0809 
     92 H92        25.8098   29.8470   -0.3931 H         1 UNK         0.0809 
     93 H93        24.8322   29.7929   -1.8601 H         1 UNK         0.0809 
     94 H94        26.7897   28.0905   -1.8102 H         1 UNK         0.2990 
     95 H95        27.0969   25.4970   -3.8542 H         1 UNK         0.0690 
     96 H96        28.7949   27.5048   -2.2558 H         1 UNK         0.0788 
     97 H97        27.8318   27.8801   -3.6897 H         1 UNK         0.0788 
     98 H98        29.2137   26.8114   -3.8134 H         1 UNK         0.0788 
     99 H99        28.3717   24.9719   -1.2291 H         1 UNK         0.2993 
    100 H100       28.7935   21.9865   -1.6315 H         1 UNK         0.0949 
    101 H101       30.3480   21.4834   -3.4651 H         1 UNK         0.0767 
    102 H102       31.4357   22.7701   -2.9700 H         1 UNK         0.0767 
    103 H103       31.2084   21.3565   -1.9407 H         1 UNK         0.0767 
    104 H104       29.5025   22.9594    0.2083 H         1 UNK         0.3013 
    105 H105       26.2259   29.1130    2.1210 H         1 UNK         0.3121 
    106 H106       25.5299   30.1447    4.7864 H         1 UNK         0.0774 
    107 H107       25.8068   32.3519    3.6458 H         1 UNK         0.0815 
    108 H108       26.4091   31.5602    2.1969 H         1 UNK         0.0815 
    109 H109       24.7375   31.3224    2.7077 H         1 UNK         0.0815 
    110 H110       27.0477   31.4240    6.0156 H         1 UNK         0.2987 
    111 H111       29.6510   30.2493    6.2056 H         1 UNK         0.0949 
    112 H112       28.2939   30.8707    8.1831 H         1 UNK         0.0806 
    113 H113       29.8397   31.6977    8.2137 H         1 UNK         0.0806 
    114 H114       28.3911   32.5771    7.7437 H         1 UNK         0.0806 
    115 H115       29.8968   31.1003    3.8057 H         1 UNK         0.3010 
    116 H116       31.3581   33.6574    3.5840 H         1 UNK         0.0829 
    117 H117       29.8965   32.8132    1.7121 H         1 UNK         0.0813 
    118 H118       31.5655   32.9418    1.1910 H         1 UNK         0.0813 
    119 H119       30.8886   31.3650    1.5812 H         1 UNK         0.0813 
    120 H120       33.5486   33.5318    2.5023 H         1 UNK         0.3038 
    121 H121       35.4533   32.2470    4.1077 H         1 UNK         0.0769 
    122 H122       35.8801   34.3453    2.8533 H         1 UNK         0.0811 
    123 H123       37.0801   33.1397    2.4258 H         1 UNK         0.0811 
    124 H124       35.7607   33.4847    1.3170 H         1 UNK         0.0811 
    125 H125       33.7415   30.8647    1.4733 H         1 UNK         0.3204 
    126 H126       35.6281   28.8155    0.7076 H         1 UNK         0.0748 
    127 H127       33.5936   27.8033   -0.3828 H         1 UNK         0.0771 
    128 H128       32.5895   29.0369    0.3675 H         1 UNK         0.0771 
    129 H129       33.8126   29.4898   -0.8162 H         1 UNK         0.0771 
    130 H130       33.4898   29.1812    3.4983 H         1 UNK         0.2980 
    131 H131       33.3464   26.3458    4.1026 H         1 UNK         0.0545 
    132 H132       34.7328   25.1174    5.4387 H         1 UNK         0.3459 
    133 H133       36.1737   25.7848    6.1550 H         1 UNK         0.3459 
    134 H134       32.4855   27.1277    6.3352 H         1 UNK         0.0616 
    135 H135       32.7463   28.7809    5.8523 H         1 UNK         0.0616 
    136 H136       28.9019   27.1493    5.8475 H         1 UNK         0.0634 
    137 H137       30.3129   26.6084    6.7143 H         1 UNK         0.0634 
@<TRIPOS>BOND
     1    1    2 1    
     2    1   72 1    
     3    1   73 1    
     4    1   74 1    
     5    2    3 2    
     6    2    4 am   BACKBONE|DICT|INTERRES
     7    4    5 1    
     8    4   75 1    
     9    5    6 1    
    10    5   35 1    
    11    5   76 1    
    12    6    7 1    
    13    6   77 1    
    14    6   78 1    
    15    7    8 1    
    16    8    9 1    
    17    8   79 1    
    18    8   80 1    
    19    9   10 ar   
    20    9   14 ar   
    21   10   11 ar   
    22   10   81 1    
    23   11   12 ar   
    24   11   71 1    
    25   12   13 ar   
    26   12   82 1    
    27   13   14 ar   
    28   13   15 1    
    29   14   83 1    
    30   15   16 1    
    31   15   84 1    
    32   15   85 1    
    33   16   17 1    
    34   17   18 1    
    35   17   86 1    
    36   17   87 1    
    37   18   19 1    
    38   18   37 1    
    39   18   88 1    
    40   19   20 am   BACKBONE|DICT|INTERRES
    41   19   89 1    
    42   20   21 2    
    43   20   22 1    
    44   22   23 1    
    45   22   24 1    
    46   22   90 1    
    47   23   91 1    
    48   23   92 1    
    49   23   93 1    
    50   24   25 am   BACKBONE|DICT|INTERRES
    51   24   94 1    
    52   25   26 2    
    53   25   27 1    
    54   27   28 1    
    55   27   29 1    
    56   27   95 1    
    57   28   96 1    
    58   28   97 1    
    59   28   98 1    
    60   29   30 am   BACKBONE|DICT|INTERRES
    61   29   99 1    
    62   30   31 2    
    63   30   32 1    
    64   32   33 1    
    65   32   34 1    
    66   32  100 1    
    67   33  101 1    
    68   33  102 1    
    69   33  103 1    
    70   34   35 am   BACKBONE|DICT|INTERRES
    71   34  104 1    
    72   35   36 2    
    73   37   38 2    
    74   37   39 am   BACKBONE|DICT|INTERRES
    75   39   40 1    
    76   39  105 1    
    77   40   41 1    
    78   40   42 1    
    79   40  106 1    
    80   41  107 1    
    81   41  108 1    
    82   41  109 1    
    83   42   43 2    
    84   42   44 am   BACKBONE|DICT|INTERRES
    85   44   45 1    
    86   44  110 1    
    87   45   46 1    
    88   45   47 1    
    89   45  111 1    
    90   46  112 1    
    91   46  113 1    
    92   46  114 1    
    93   47   48 2    
    94   47   49 am   BACKBONE|DICT|INTERRES
    95   49   50 1    
    96   49  115 1    
    97   50   51 1    
    98   50   52 1    
    99   50  116 1    
   100   51  117 1    
   101   51  118 1    
   102   51  119 1    
   103   52   53 2    
   104   52   54 am   BACKBONE|DICT|INTERRES
   105   54   55 1    
   106   54  120 1    
   107   55   56 1    
   108   55   57 1    
   109   55  121 1    
   110   56  122 1    
   111   56  123 1    
   112   56  124 1    
   113   57   58 2    
   114   57   59 am   BACKBONE|DICT|INTERRES
   115   59   60 1    
   116   59  125 1    
   117   60   61 1    
   118   60   62 1    
   119   60  126 1    
   120   61  127 1    
   121   61  128 1    
   122   61  129 1    
   123   62   63 2    
   124   62   64 am   BACKBONE|DICT|INTERRES
   125   64   65 1    
   126   64  130 1    
   127   65   66 1    
   128   65   69 1    
   129   65  131 1    
   130   66   67 am   BACKBONE|DICT|INTERRES
   131   66   68 2    
   132   67  132 1    
   133   67  133 1    
   134   69   70 1    
   135   69  134 1    
   136   69  135 1    
   137   70   71 1    
   138   71  136 1    
   139   71  137 1    
@<TRIPOS>SUBSTRUCTURE
     1 UNK         1 GROUP             0       ****    0 ROOT    
