@<TRIPOS>MOLECULE
3R136
137   139    1
SMALL
USER_CHARGES


@<TRIPOS>ATOM
      1 CA         31.2782   26.4290   -4.6184 C.3       0 UNK        -0.1979 
      2 C          30.5332   26.7443   -3.3299 C.2       0 UNK         0.4864 
      3 O          30.0144   27.8498   -3.1796 O.2       0 UNK        -0.5359 
      4 N          30.4705   25.7772   -2.4037 N.am      1 UNK        -0.4318 
      5 CA         29.8349   25.9045   -1.0821 C.3       1 UNK         0.0824 
      6 C6         30.3189   24.8049   -0.1045 C.3       12 UNK        -0.0944 
      7 S7         32.1348   24.8051    0.0749 S.3       12 UNK        -0.2672 
      8 C8         32.4280   23.1688    0.8128 C.3       12 UNK         0.0333 
      9 C9         32.1309   23.1749    2.3036 C.ar      12 UNK        -0.0807 
     10 C10        33.0969   23.6347    3.2029 C.ar      12 UNK        -0.0894 
     11 C11        32.8397   23.6561    4.5769 C.ar      12 UNK        -0.0804 
     12 C12        31.6031   23.2039    5.0485 C.ar      12 UNK        -0.0824 
     13 C13        30.6333   22.7261    4.1593 C.ar      12 UNK        -0.0762 
     14 C14        30.9030   22.7145    2.7871 C.ar      12 UNK        -0.0782 
     15 C15        29.3055   22.1942    4.6846 C.3       12 UNK         0.0230 
     16 S16        27.8805   23.1914    4.1415 S.3       12 UNK        -0.2608 
     17 C17        28.2664   24.8231    4.8644 C.3       12 UNK        -0.0989 
     18 CA         28.4575   25.9041    3.7640 C.3       5 UNK         0.0716 
     19 N          27.2665   26.0927    2.9205 N.am      5 UNK        -0.4135 
     20 C          26.0489   26.4868    3.3293 C.2       4 UNK         0.5031 
     21 O          25.7764   26.8169    4.4833 O.2       4 UNK        -0.5229 
     22 CA         24.9478   26.5318    2.2618 C.3       4 UNK         0.0329 
     23 CB         24.9126   27.9132    1.5868 C.3       4 UNK        -0.2001 
     24 N          25.1591   25.5063    1.2431 N.am      4 UNK        -0.4303 
     25 C          24.7286   24.2386    1.3135 C.2       3 UNK         0.5044 
     26 O          24.0392   23.8077    2.2390 O.2       3 UNK        -0.5152 
     27 CA         25.1537   23.2784    0.1774 C.3       3 UNK         0.0319 
     28 CB         23.9856   22.3938   -0.3072 C.3       3 UNK        -0.2001 
     29 N          25.8247   23.9445   -0.9504 N.am      3 UNK        -0.4354 
     30 C          25.3118   24.8679   -1.7795 C.2       2 UNK         0.4964 
     31 O          24.1188   25.1721   -1.8082 O.2       2 UNK        -0.5047 
     32 CA         26.3026   25.6195   -2.6928 C.3       2 UNK         0.0288 
     33 CB         25.9046   27.1017   -2.8649 C.3       2 UNK        -0.2113 
     34 N          27.7174   25.5343   -2.2943 N.am      2 UNK        -0.4145 
     35 C          28.2906   25.9375   -1.1459 C.2       1 UNK         0.5006 
     36 O          27.6575   26.3061   -0.1518 O.2       1 UNK        -0.5103 
     37 C          29.0219   27.2298    4.3244 C.2       5 UNK         0.5055 
     38 O          29.8246   27.2002    5.2550 O.2       5 UNK        -0.5220 
     39 N          28.6234   28.3652    3.7377 N.am      6 UNK        -0.4450 
     40 CA         29.0749   29.7134    4.0824 C.3       6 UNK         0.0367 
     41 CB         28.3858   30.1978    5.3749 C.3       6 UNK        -0.1929 
     42 C          28.8473   30.6671    2.8975 C.2       6 UNK         0.5070 
     43 O          28.5959   31.8558    3.1021 O.2       6 UNK        -0.5237 
     44 N          28.9244   30.1391    1.6668 N.am      7 UNK        -0.4739 
     45 CA         28.7003   30.8682    0.4146 C.3       7 UNK         0.0276 
     46 CB         28.3320   29.8563   -0.6872 C.3       7 UNK        -0.1927 
     47 C          29.9216   31.7319    0.0443 C.2       7 UNK         0.5013 
     48 O          30.6143   31.4334   -0.9297 O.2       7 UNK        -0.5193 
     49 N          30.1775   32.7618    0.8655 N.am      8 UNK        -0.4253 
     50 CA         31.3418   33.6582    0.8403 C.3       8 UNK         0.0242 
     51 CB         31.3325   34.5445   -0.4241 C.3       8 UNK        -0.2000 
     52 C          32.6637   32.8875    1.0345 C.2       8 UNK         0.4948 
     53 O          33.6272   33.1059    0.2969 O.2       8 UNK        -0.5275 
     54 N          32.6662   31.9819    2.0195 N.am      9 UNK        -0.4246 
     55 CA         33.7755   31.1007    2.3693 C.3       9 UNK         0.0261 
     56 CB         33.4074   29.6598    1.9705 C.3       9 UNK        -0.1959 
     57 C          34.0254   31.1873    3.8777 C.2       9 UNK         0.5033 
     58 O          33.0950   31.4767    4.6365 O.2       9 UNK        -0.5390 
     59 N          35.2627   30.8753    4.2886 N.am      10 UNK        -0.4215 
     60 CA         35.7293   30.8745    5.6830 C.3       10 UNK         0.0240 
     61 CB         37.2401   30.5887    5.7073 C.3       10 UNK        -0.1982 
     62 C          34.9829   29.8978    6.6134 C.2       10 UNK         0.4970 
     63 O          35.0181   30.0832    7.8305 O.2       10 UNK        -0.4916 
     64 N          34.3129   28.8973    6.0291 N.am      11 UNK        -0.4279 
     65 CA         33.3814   27.9836    6.7044 C.3       11 UNK         0.1003 
     66 C          32.1081   28.6783    7.2759 C.2       11 UNK         0.5709 
     67 N          31.7418   29.8768    6.8301 N.am      11 UNK        -0.7358 
     68 O          31.4624   28.1306    8.1665 O.2       11 UNK        -0.4999 
     69 C69        32.9979   26.7975    5.7813 C.3       12 UNK        -0.0954 
     70 S70        34.4491   25.8390    5.2312 S.3       12 UNK        -0.2268 
     71 C71        33.9138   24.1274    5.5510 C.3       12 UNK         0.0203 
     72 H72        30.6088   26.5265   -5.4726 H         1 UNK         0.0888 
     73 H73        32.1053   27.1257   -4.7523 H         1 UNK         0.0888 
     74 H74        31.6842   25.4176   -4.6186 H         1 UNK         0.0888 
     75 H75        30.9419   24.8997   -2.5736 H         1 UNK         0.3017 
     76 H76        30.1388   26.8682   -0.6680 H         1 UNK         0.0873 
     77 H77        29.8844   24.9480    0.8858 H         1 UNK         0.0745 
     78 H78        29.9946   23.8201   -0.4462 H         1 UNK         0.0745 
     79 H79        31.8336   22.4122    0.2983 H         1 UNK         0.0705 
     80 H80        33.4716   22.8944    0.6513 H         1 UNK         0.0705 
     81 H81        34.0515   23.9830    2.8321 H         1 UNK         0.1334 
     82 H82        31.4013   23.2091    6.1110 H         1 UNK         0.1417 
     83 H83        30.1539   22.3482    2.0982 H         1 UNK         0.1562 
     84 H84        29.3078   22.1457    5.7747 H         1 UNK         0.0748 
     85 H85        29.1702   21.1696    4.3353 H         1 UNK         0.0748 
     86 H86        29.1614   24.7347    5.4819 H         1 UNK         0.0940 
     87 H87        27.4661   25.1005    5.5516 H         1 UNK         0.0940 
     88 H88        29.2379   25.5408    3.0945 H         1 UNK         0.0703 
     89 H89        27.3903   25.8920    1.9352 H         1 UNK         0.3081 
     90 H90        23.9878   26.3636    2.7547 H         1 UNK         0.0719 
     91 H91        24.7441   28.7028    2.3205 H         1 UNK         0.0809 
     92 H92        25.8470   28.1382    1.0717 H         1 UNK         0.0809 
     93 H93        24.1068   27.9738    0.8550 H         1 UNK         0.0809 
     94 H94        25.7522   25.7654    0.4631 H         1 UNK         0.2990 
     95 H95        25.9022   22.6178    0.6176 H         1 UNK         0.0690 
     96 H96        24.3022   21.7176   -1.1012 H         1 UNK         0.0788 
     97 H97        23.1526   22.9881   -0.6834 H         1 UNK         0.0788 
     98 H98        23.5993   21.7778    0.5057 H         1 UNK         0.0788 
     99 H99        26.8168   23.7691   -1.0229 H         1 UNK         0.2993 
    100 H100       26.2293   25.1394   -3.6698 H         1 UNK         0.0949 
    101 H101       25.8842   27.6269   -1.9091 H         1 UNK         0.0767 
    102 H102       26.6022   27.6262   -3.5183 H         1 UNK         0.0767 
    103 H103       24.9136   27.1971   -3.3105 H         1 UNK         0.0767 
    104 H104       28.3448   25.2149   -3.0192 H         1 UNK         0.3013 
    105 H105       27.9337   28.3058    3.0022 H         1 UNK         0.3121 
    106 H106       30.1532   29.6867    4.2547 H         1 UNK         0.0774 
    107 H107       27.3035   30.2531    5.2540 H         1 UNK         0.0815 
    108 H108       28.5958   29.5327    6.2126 H         1 UNK         0.0815 
    109 H109       28.7369   31.1902    5.6603 H         1 UNK         0.0815 
    110 H110       29.2185   29.1782    1.5719 H         1 UNK         0.2987 
    111 H111       27.8496   31.5417    0.5428 H         1 UNK         0.0949 
    112 H112       27.4358   29.2919   -0.4309 H         1 UNK         0.0806 
    113 H113       28.1343   30.3623   -1.6330 H         1 UNK         0.0806 
    114 H114       29.1364   29.1427   -0.8663 H         1 UNK         0.0806 
    115 H115       29.5631   32.8548    1.6702 H         1 UNK         0.3010 
    116 H116       31.2433   34.3175    1.7041 H         1 UNK         0.0829 
    117 H117       31.4771   33.9590   -1.3326 H         1 UNK         0.0813 
    118 H118       30.3926   35.0876   -0.5211 H         1 UNK         0.0813 
    119 H119       32.1320   35.2855   -0.3862 H         1 UNK         0.0813 
    120 H120       31.8715   31.9330    2.6424 H         1 UNK         0.3038 
    121 H121       34.6856   31.4026    1.8462 H         1 UNK         0.0769 
    122 H122       33.2011   29.5877    0.9022 H         1 UNK         0.0811 
    123 H123       32.5240   29.3047    2.5035 H         1 UNK         0.0811 
    124 H124       34.2218   28.9678    2.1889 H         1 UNK         0.0811 
    125 H125       35.9524   30.6339    3.5906 H         1 UNK         0.3204 
    126 H126       35.5645   31.8781    6.0807 H         1 UNK         0.0748 
    127 H127       37.4715   29.6051    5.2960 H         1 UNK         0.0771 
    128 H128       37.7956   31.3327    5.1359 H         1 UNK         0.0771 
    129 H129       37.6269   30.6139    6.7273 H         1 UNK         0.0771 
    130 H130       34.3613   28.8097    5.0266 H         1 UNK         0.2980 
    131 H131       33.9106   27.5726    7.5661 H         1 UNK         0.0545 
    132 H132       30.9263   30.3139    7.2255 H         1 UNK         0.3459 
    133 H133       32.2714   30.3537    6.1088 H         1 UNK         0.3459 
    134 H134       32.4784   27.1584    4.8921 H         1 UNK         0.0616 
    135 H135       32.3007   26.1296    6.2907 H         1 UNK         0.0616 
    136 H136       33.5753   24.0442    6.5849 H         1 UNK         0.0634 
    137 H137       34.7796   23.4705    5.4587 H         1 UNK         0.0634 
@<TRIPOS>BOND
     1    1    2 1    
     2    1   72 1    
     3    1   73 1    
     4    1   74 1    
     5    2    3 2    
     6    2    4 am   BACKBONE|DICT|INTERRES
     7    4    5 1    
     8    4   75 1    
     9    5    6 1    
    10    5   35 1    
    11    5   76 1    
    12    6    7 1    
    13    6   77 1    
    14    6   78 1    
    15    7    8 1    
    16    8    9 1    
    17    8   79 1    
    18    8   80 1    
    19    9   10 ar   
    20    9   14 ar   
    21   10   11 ar   
    22   10   81 1    
    23   11   12 ar   
    24   11   71 1    
    25   12   13 ar   
    26   12   82 1    
    27   13   14 ar   
    28   13   15 1    
    29   14   83 1    
    30   15   16 1    
    31   15   84 1    
    32   15   85 1    
    33   16   17 1    
    34   17   18 1    
    35   17   86 1    
    36   17   87 1    
    37   18   19 1    
    38   18   37 1    
    39   18   88 1    
    40   19   20 am   BACKBONE|DICT|INTERRES
    41   19   89 1    
    42   20   21 2    
    43   20   22 1    
    44   22   23 1    
    45   22   24 1    
    46   22   90 1    
    47   23   91 1    
    48   23   92 1    
    49   23   93 1    
    50   24   25 am   BACKBONE|DICT|INTERRES
    51   24   94 1    
    52   25   26 2    
    53   25   27 1    
    54   27   28 1    
    55   27   29 1    
    56   27   95 1    
    57   28   96 1    
    58   28   97 1    
    59   28   98 1    
    60   29   30 am   BACKBONE|DICT|INTERRES
    61   29   99 1    
    62   30   31 2    
    63   30   32 1    
    64   32   33 1    
    65   32   34 1    
    66   32  100 1    
    67   33  101 1    
    68   33  102 1    
    69   33  103 1    
    70   34   35 am   BACKBONE|DICT|INTERRES
    71   34  104 1    
    72   35   36 2    
    73   37   38 2    
    74   37   39 am   BACKBONE|DICT|INTERRES
    75   39   40 1    
    76   39  105 1    
    77   40   41 1    
    78   40   42 1    
    79   40  106 1    
    80   41  107 1    
    81   41  108 1    
    82   41  109 1    
    83   42   43 2    
    84   42   44 am   BACKBONE|DICT|INTERRES
    85   44   45 1    
    86   44  110 1    
    87   45   46 1    
    88   45   47 1    
    89   45  111 1    
    90   46  112 1    
    91   46  113 1    
    92   46  114 1    
    93   47   48 2    
    94   47   49 am   BACKBONE|DICT|INTERRES
    95   49   50 1    
    96   49  115 1    
    97   50   51 1    
    98   50   52 1    
    99   50  116 1    
   100   51  117 1    
   101   51  118 1    
   102   51  119 1    
   103   52   53 2    
   104   52   54 am   BACKBONE|DICT|INTERRES
   105   54   55 1    
   106   54  120 1    
   107   55   56 1    
   108   55   57 1    
   109   55  121 1    
   110   56  122 1    
   111   56  123 1    
   112   56  124 1    
   113   57   58 2    
   114   57   59 am   BACKBONE|DICT|INTERRES
   115   59   60 1    
   116   59  125 1    
   117   60   61 1    
   118   60   62 1    
   119   60  126 1    
   120   61  127 1    
   121   61  128 1    
   122   61  129 1    
   123   62   63 2    
   124   62   64 am   BACKBONE|DICT|INTERRES
   125   64   65 1    
   126   64  130 1    
   127   65   66 1    
   128   65   69 1    
   129   65  131 1    
   130   66   67 am   BACKBONE|DICT|INTERRES
   131   66   68 2    
   132   67  132 1    
   133   67  133 1    
   134   69   70 1    
   135   69  134 1    
   136   69  135 1    
   137   70   71 1    
   138   71  136 1    
   139   71  137 1    
@<TRIPOS>SUBSTRUCTURE
     1 UNK         1 GROUP             0       ****    0 ROOT    
