@<TRIPOS>MOLECULE
3R136
137   139    1
SMALL
USER_CHARGES


@<TRIPOS>ATOM
      1 CA         26.7978   21.9684    0.6032 C.3       0 UNK        -0.1979 
      2 C          27.8944   22.5350   -0.2862 C.2       0 UNK         0.4864 
      3 O          28.2129   21.9444   -1.3189 O.2       0 UNK        -0.5359 
      4 N          28.4728   23.6739    0.1124 N.am      1 UNK        -0.4318 
      5 CA         29.4774   24.4191   -0.6516 C.3       1 UNK         0.0824 
      6 C6         30.3821   25.2626    0.2838 C.3       12 UNK        -0.0944 
      7 S7         32.1283   25.2390   -0.2336 S.3       12 UNK        -0.2672 
      8 C8         32.6903   23.6396    0.4403 C.3       12 UNK         0.0333 
      9 C9         32.4781   23.5329    1.9441 C.ar      12 UNK        -0.0807 
     10 C10        33.1614   24.3914    2.8090 C.ar      12 UNK        -0.0894 
     11 C11        32.9642   24.3127    4.1895 C.ar      12 UNK        -0.0804 
     12 C12        32.0789   23.3608    4.7047 C.ar      12 UNK        -0.0824 
     13 C13        31.3804   22.5008    3.8488 C.ar      12 UNK        -0.0762 
     14 C14        31.5886   22.5886    2.4689 C.ar      12 UNK        -0.0782 
     15 C15        30.4128   21.4671    4.4157 C.3       12 UNK         0.0230 
     16 S16        28.6619   21.8932    4.1191 S.3       12 UNK        -0.2608 
     17 C17        28.5222   23.5062    4.9583 C.3       12 UNK        -0.0989 
     18 CA         28.2568   24.6378    3.9291 C.3       5 UNK         0.0716 
     19 N          26.8272   24.7572    3.6176 N.am      5 UNK        -0.4135 
     20 C          26.3153   25.3206    2.5176 C.2       4 UNK         0.5031 
     21 O          27.0101   25.6946    1.5634 O.2       4 UNK        -0.5229 
     22 CA         24.7914   25.5105    2.4844 C.3       4 UNK         0.0329 
     23 CB         24.2907   26.3518    3.6751 C.3       4 UNK        -0.2001 
     24 N          24.4438   26.1818    1.2384 N.am      4 UNK        -0.4303 
     25 C          23.2927   26.0846    0.5642 C.2       3 UNK         0.5044 
     26 O          22.3209   25.4369    0.9550 O.2       3 UNK        -0.5152 
     27 CA         23.2107   26.8394   -0.7798 C.3       3 UNK         0.0319 
     28 CB         22.4079   28.1404   -0.6171 C.3       3 UNK        -0.2001 
     29 N          24.5289   27.1565   -1.3439 N.am      3 UNK        -0.4354 
     30 C          25.3747   26.2463   -1.8463 C.2       2 UNK         0.4964 
     31 O          25.0831   25.0585   -1.9957 O.2       2 UNK        -0.5047 
     32 CA         26.7995   26.7075   -2.1818 C.3       2 UNK         0.0288 
     33 CB         27.0661   28.2128   -1.9665 C.3       2 UNK        -0.2113 
     34 N          27.6926   25.9343   -1.3284 N.am      2 UNK        -0.4145 
     35 C          28.7999   25.2954   -1.7220 C.2       1 UNK         0.5006 
     36 O          29.2689   25.3562   -2.8599 O.2       1 UNK        -0.5103 
     37 C          28.8337   26.0045    4.3605 C.2       5 UNK         0.5055 
     38 O          29.2076   26.1799    5.5203 O.2       5 UNK        -0.5220 
     39 N          28.8717   26.9419    3.4073 N.am      6 UNK        -0.4450 
     40 CA         29.4899   28.2602    3.4744 C.3       6 UNK         0.0367 
     41 CB         28.8711   29.1459    4.5769 C.3       6 UNK        -0.1929 
     42 C          29.3151   28.9028    2.0959 C.2       6 UNK         0.5070 
     43 O          28.2110   29.3416    1.7708 O.2       6 UNK        -0.5237 
     44 N          30.3892   28.9312    1.2998 N.am      7 UNK        -0.4739 
     45 CA         30.4288   29.6304    0.0095 C.3       7 UNK         0.0276 
     46 CB         31.4412   28.9347   -0.9142 C.3       7 UNK        -0.1927 
     47 C          30.7765   31.1226    0.1647 C.2       7 UNK         0.5013 
     48 O          30.5496   31.8976   -0.7651 O.2       7 UNK        -0.5193 
     49 N          31.3203   31.4949    1.3274 N.am      8 UNK        -0.4253 
     50 CA         31.7252   32.8368    1.7270 C.3       8 UNK         0.0242 
     51 CB         33.0813   33.1850    1.0805 C.3       8 UNK        -0.2000 
     52 C          31.8150   32.8582    3.2585 C.2       8 UNK         0.4948 
     53 O          31.6814   31.8070    3.8925 O.2       8 UNK        -0.5275 
     54 N          32.0962   34.0366    3.8322 N.am      9 UNK        -0.4246 
     55 CA         32.3059   34.2388    5.2743 C.3       9 UNK         0.0261 
     56 CB         32.4742   35.7402    5.5585 C.3       9 UNK        -0.1959 
     57 C          33.4933   33.4439    5.8568 C.2       9 UNK         0.5033 
     58 O          33.4759   33.1118    7.0422 O.2       9 UNK        -0.5390 
     59 N          34.4788   33.1224    5.0074 N.am      10 UNK        -0.4215 
     60 CA         35.6140   32.2443    5.3060 C.3       10 UNK         0.0240 
     61 CB         36.7931   32.6484    4.4022 C.3       10 UNK        -0.1982 
     62 C          35.2875   30.7421    5.1486 C.2       10 UNK         0.4970 
     63 O          36.2054   29.9246    5.2315 O.2       10 UNK        -0.4916 
     64 N          34.0162   30.3986    4.8968 N.am      11 UNK        -0.4279 
     65 CA         33.4827   29.0593    4.6135 C.3       11 UNK         0.1003 
     66 C          33.8415   28.5562    3.1900 C.2       11 UNK         0.5709 
     67 N          35.1181   28.4694    2.8426 N.am      11 UNK        -0.7358 
     68 O          32.9519   28.2726    2.3917 O.2       11 UNK        -0.4999 
     69 C69        33.7840   28.0200    5.7290 C.3       12 UNK        -0.0954 
     70 S70        32.6316   26.6079    5.6856 S.3       12 UNK        -0.2268 
     71 C71        33.7113   25.2581    5.1171 C.3       12 UNK         0.0203 
     72 H72        25.8218   22.1398    0.1498 H         1 UNK         0.0888 
     73 H73        26.9331   20.8948    0.7308 H         1 UNK         0.0888 
     74 H74        26.8017   22.4233    1.5930 H         1 UNK         0.0888 
     75 H75        28.1059   24.1506    0.9269 H         1 UNK         0.3017 
     76 H76        30.0944   23.6885   -1.1793 H         1 UNK         0.0873 
     77 H77        30.0531   26.3010    0.3446 H         1 UNK         0.0745 
     78 H78        30.3277   24.9049    1.3107 H         1 UNK         0.0745 
     79 H79        33.7518   23.5185    0.2203 H         1 UNK         0.0705 
     80 H80        32.1757   22.8324   -0.0830 H         1 UNK         0.0705 
     81 H81        33.8366   25.1322    2.4016 H         1 UNK         0.1334 
     82 H82        31.9269   23.3012    5.7739 H         1 UNK         0.1417 
     83 H83        31.0483   21.9266    1.8055 H         1 UNK         0.1562 
     84 H84        30.5702   21.3393    5.4879 H         1 UNK         0.0748 
     85 H85        30.6189   20.4961    3.9630 H         1 UNK         0.0748 
     86 H86        29.4379   23.6755    5.5258 H         1 UNK         0.0940 
     87 H87        27.7297   23.4578    5.7067 H         1 UNK         0.0940 
     88 H88        28.7906   24.3798    3.0130 H         1 UNK         0.0703 
     89 H89        26.1952   24.4799    4.3544 H         1 UNK         0.3081 
     90 H90        24.3284   24.5217    2.5061 H         1 UNK         0.0719 
     91 H91        24.4717   25.8516    4.6268 H         1 UNK         0.0809 
     92 H92        23.2167   26.5280    3.6108 H         1 UNK         0.0809 
     93 H93        24.7841   27.3241    3.7154 H         1 UNK         0.0809 
     94 H94        25.2096   26.6938    0.8218 H         1 UNK         0.2990 
     95 H95        22.6809   26.1957   -1.4853 H         1 UNK         0.0690 
     96 H96        22.2829   28.6521   -1.5716 H         1 UNK         0.0788 
     97 H97        22.8920   28.8307    0.0750 H         1 UNK         0.0788 
     98 H98        21.4092   27.9363   -0.2280 H         1 UNK         0.0788 
     99 H99        24.8420   28.1136   -1.2628 H         1 UNK         0.2993 
    100 H100       26.9698   26.4649   -3.2330 H         1 UNK         0.0949 
    101 H101       26.3980   28.8272   -2.5715 H         1 UNK         0.0767 
    102 H102       26.9503   28.5074   -0.9221 H         1 UNK         0.0767 
    103 H103       28.0835   28.4674   -2.2644 H         1 UNK         0.0767 
    104 H104       27.3767   25.7958   -0.3733 H         1 UNK         0.3013 
    105 H105       28.4411   26.7200    2.5141 H         1 UNK         0.3121 
    106 H106       30.5522   28.1269    3.6808 H         1 UNK         0.0774 
    107 H107       29.2581   30.1643    4.5173 H         1 UNK         0.0815 
    108 H108       27.7856   29.2014    4.4885 H         1 UNK         0.0815 
    109 H109       29.1094   28.7770    5.5740 H         1 UNK         0.0815 
    110 H110       31.2720   28.5454    1.6336 H         1 UNK         0.2987 
    111 H111       29.4469   29.5774   -0.4653 H         1 UNK         0.0949 
    112 H112       31.1186   27.9242   -1.1618 H         1 UNK         0.0806 
    113 H113       31.5491   29.4729   -1.8569 H         1 UNK         0.0806 
    114 H114       32.4297   28.8713   -0.4573 H         1 UNK         0.0806 
    115 H115       31.4150   30.8074    2.0650 H         1 UNK         0.3010 
    116 H116       30.9622   33.5525    1.4138 H         1 UNK         0.0829 
    117 H117       33.0239   33.1455   -0.0075 H         1 UNK         0.0813 
    118 H118       33.4039   34.1930    1.3427 H         1 UNK         0.0813 
    119 H119       33.8657   32.4951    1.3952 H         1 UNK         0.0813 
    120 H120       32.1839   34.8545    3.2452 H         1 UNK         0.3038 
    121 H121       31.4060   33.8928    5.7874 H         1 UNK         0.0769 
    122 H122       33.3452   36.1538    5.0486 H         1 UNK         0.0811 
    123 H123       32.6050   35.9229    6.6262 H         1 UNK         0.0811 
    124 H124       31.5978   36.3058    5.2415 H         1 UNK         0.0811 
    125 H125       34.4061   33.4539    4.0567 H         1 UNK         0.3204 
    126 H126       35.9153   32.3974    6.3444 H         1 UNK         0.0748 
    127 H127       37.6880   32.0714    4.6397 H         1 UNK         0.0771 
    128 H128       36.5691   32.4827    3.3476 H         1 UNK         0.0771 
    129 H129       37.0492   33.7004    4.5306 H         1 UNK         0.0771 
    130 H130       33.3286   31.1366    4.7929 H         1 UNK         0.2980 
    131 H131       32.4039   29.2174    4.6162 H         1 UNK         0.0545 
    132 H132       35.8331   28.7426    3.5041 H         1 UNK         0.3459 
    133 H133       35.3645   28.1561    1.9178 H         1 UNK         0.3459 
    134 H134       33.6675   28.4893    6.7068 H         1 UNK         0.0616 
    135 H135       34.8179   27.6749    5.6877 H         1 UNK         0.0616 
    136 H136       34.0909   24.7131    5.9825 H         1 UNK         0.0634 
    137 H137       34.5832   25.6645    4.6025 H         1 UNK         0.0634 
@<TRIPOS>BOND
     1    1    2 1    
     2    1   72 1    
     3    1   73 1    
     4    1   74 1    
     5    2    3 2    
     6    2    4 am   BACKBONE|DICT|INTERRES
     7    4    5 1    
     8    4   75 1    
     9    5    6 1    
    10    5   35 1    
    11    5   76 1    
    12    6    7 1    
    13    6   77 1    
    14    6   78 1    
    15    7    8 1    
    16    8    9 1    
    17    8   79 1    
    18    8   80 1    
    19    9   10 ar   
    20    9   14 ar   
    21   10   11 ar   
    22   10   81 1    
    23   11   12 ar   
    24   11   71 1    
    25   12   13 ar   
    26   12   82 1    
    27   13   14 ar   
    28   13   15 1    
    29   14   83 1    
    30   15   16 1    
    31   15   84 1    
    32   15   85 1    
    33   16   17 1    
    34   17   18 1    
    35   17   86 1    
    36   17   87 1    
    37   18   19 1    
    38   18   37 1    
    39   18   88 1    
    40   19   20 am   BACKBONE|DICT|INTERRES
    41   19   89 1    
    42   20   21 2    
    43   20   22 1    
    44   22   23 1    
    45   22   24 1    
    46   22   90 1    
    47   23   91 1    
    48   23   92 1    
    49   23   93 1    
    50   24   25 am   BACKBONE|DICT|INTERRES
    51   24   94 1    
    52   25   26 2    
    53   25   27 1    
    54   27   28 1    
    55   27   29 1    
    56   27   95 1    
    57   28   96 1    
    58   28   97 1    
    59   28   98 1    
    60   29   30 am   BACKBONE|DICT|INTERRES
    61   29   99 1    
    62   30   31 2    
    63   30   32 1    
    64   32   33 1    
    65   32   34 1    
    66   32  100 1    
    67   33  101 1    
    68   33  102 1    
    69   33  103 1    
    70   34   35 am   BACKBONE|DICT|INTERRES
    71   34  104 1    
    72   35   36 2    
    73   37   38 2    
    74   37   39 am   BACKBONE|DICT|INTERRES
    75   39   40 1    
    76   39  105 1    
    77   40   41 1    
    78   40   42 1    
    79   40  106 1    
    80   41  107 1    
    81   41  108 1    
    82   41  109 1    
    83   42   43 2    
    84   42   44 am   BACKBONE|DICT|INTERRES
    85   44   45 1    
    86   44  110 1    
    87   45   46 1    
    88   45   47 1    
    89   45  111 1    
    90   46  112 1    
    91   46  113 1    
    92   46  114 1    
    93   47   48 2    
    94   47   49 am   BACKBONE|DICT|INTERRES
    95   49   50 1    
    96   49  115 1    
    97   50   51 1    
    98   50   52 1    
    99   50  116 1    
   100   51  117 1    
   101   51  118 1    
   102   51  119 1    
   103   52   53 2    
   104   52   54 am   BACKBONE|DICT|INTERRES
   105   54   55 1    
   106   54  120 1    
   107   55   56 1    
   108   55   57 1    
   109   55  121 1    
   110   56  122 1    
   111   56  123 1    
   112   56  124 1    
   113   57   58 2    
   114   57   59 am   BACKBONE|DICT|INTERRES
   115   59   60 1    
   116   59  125 1    
   117   60   61 1    
   118   60   62 1    
   119   60  126 1    
   120   61  127 1    
   121   61  128 1    
   122   61  129 1    
   123   62   63 2    
   124   62   64 am   BACKBONE|DICT|INTERRES
   125   64   65 1    
   126   64  130 1    
   127   65   66 1    
   128   65   69 1    
   129   65  131 1    
   130   66   67 am   BACKBONE|DICT|INTERRES
   131   66   68 2    
   132   67  132 1    
   133   67  133 1    
   134   69   70 1    
   135   69  134 1    
   136   69  135 1    
   137   70   71 1    
   138   71  136 1    
   139   71  137 1    
@<TRIPOS>SUBSTRUCTURE
     1 UNK         1 GROUP             0       ****    0 ROOT    
