@<TRIPOS>MOLECULE
3R136
137   139    1
SMALL
USER_CHARGES


@<TRIPOS>ATOM
      1 CA         27.6557   22.8520    2.6886 C.3       0 UNK        -0.1979 
      2 C          28.0234   22.2972    1.3213 C.2       0 UNK         0.4864 
      3 O          28.1880   21.0851    1.1775 O.2       0 UNK        -0.5359 
      4 N          28.1616   23.1764    0.3229 N.am      1 UNK        -0.4318 
      5 CA         28.5675   22.8237   -1.0405 C.3       1 UNK         0.0824 
      6 C6         30.0950   22.5813   -1.2032 C.3       12 UNK        -0.0944 
      7 S7         31.1391   23.8594   -0.4131 S.3       12 UNK        -0.2672 
      8 C8         31.8278   22.9350    0.9990 C.3       12 UNK         0.0333 
      9 C9         32.0493   23.8385    2.2022 C.ar      12 UNK        -0.0807 
     10 C10        32.9955   24.8658    2.1454 C.ar      12 UNK        -0.0894 
     11 C11        33.1882   25.7129    3.2397 C.ar      12 UNK        -0.0804 
     12 C12        32.4427   25.5127    4.4050 C.ar      12 UNK        -0.0824 
     13 C13        31.5159   24.4701    4.4860 C.ar      12 UNK        -0.0762 
     14 C14        31.3175   23.6409    3.3781 C.ar      12 UNK        -0.0782 
     15 C15        30.7593   24.2152    5.7823 C.3       12 UNK         0.0230 
     16 S16        29.0079   24.6970    5.6752 S.3       12 UNK        -0.2608 
     17 C17        29.1153   26.5137    5.5348 C.3       12 UNK        -0.0989 
     18 CA         28.6817   27.0167    4.1369 C.3       5 UNK         0.0716 
     19 N          27.3219   26.5815    3.7944 N.am      5 UNK        -0.4135 
     20 C          26.7899   26.6211    2.5671 C.2       4 UNK         0.5031 
     21 O          27.4000   27.0280    1.5724 O.2       4 UNK        -0.5229 
     22 CA         25.3530   26.0716    2.4388 C.3       4 UNK         0.0329 
     23 CB         24.3699   26.7451    3.4231 C.3       4 UNK        -0.2001 
     24 N          24.8717   26.1357    1.0531 N.am      4 UNK        -0.4303 
     25 C          24.5760   27.2368    0.3466 C.2       3 UNK         0.5044 
     26 O          24.4434   28.3654    0.8229 O.2       3 UNK        -0.5152 
     27 CA         24.5751   27.0369   -1.1715 C.3       3 UNK         0.0319 
     28 CB         23.9839   28.2437   -1.9346 C.3       3 UNK        -0.2001 
     29 N          25.9744   26.7891   -1.5192 N.am      3 UNK        -0.4354 
     30 C          26.4863   26.5133   -2.7225 C.2       2 UNK         0.4964 
     31 O          25.8321   26.4466   -3.7633 O.2       2 UNK        -0.5047 
     32 CA         27.9992   26.2355   -2.7507 C.3       2 UNK         0.0288 
     33 CB         28.8086   27.4889   -2.3721 C.3       2 UNK        -0.2113 
     34 N          28.3898   25.1245   -1.8763 N.am      2 UNK        -0.4145 
     35 C          28.0147   23.8472   -2.0446 C.2       1 UNK         0.5006 
     36 O          27.2622   23.4629   -2.9412 O.2       1 UNK        -0.5103 
     37 C          28.8515   28.5468    4.0447 C.2       5 UNK         0.5055 
     38 O          29.9657   29.0144    3.8090 O.2       5 UNK        -0.5220 
     39 N          27.7557   29.3012    4.2223 N.am      6 UNK        -0.4450 
     40 CA         27.7222   30.7640    4.1458 C.3       6 UNK         0.0367 
     41 CB         26.3378   31.2730    4.5776 C.3       6 UNK        -0.1929 
     42 C          28.0865   31.2975    2.7516 C.2       6 UNK         0.5070 
     43 O          28.8695   32.2411    2.6507 O.2       6 UNK        -0.5237 
     44 N          27.5638   30.6523    1.6989 N.am      7 UNK        -0.4739 
     45 CA         27.8831   30.9683    0.3018 C.3       7 UNK         0.0276 
     46 CB         26.8662   30.2828   -0.6172 C.3       7 UNK        -0.1927 
     47 C          29.3183   30.5774   -0.0906 C.2       7 UNK         0.5013 
     48 O          29.8886   31.1942   -0.9900 O.2       7 UNK        -0.5193 
     49 N          29.8850   29.5905    0.6165 N.am      8 UNK        -0.4253 
     50 CA         31.2891   29.1871    0.5260 C.3       8 UNK         0.0242 
     51 CB         31.3959   27.6936    0.8734 C.3       8 UNK        -0.2000 
     52 C          32.2174   30.0445    1.4153 C.2       8 UNK         0.4948 
     53 O          33.4144   29.7618    1.4704 O.2       8 UNK        -0.5275 
     54 N          31.6632   31.0689    2.0857 N.am      9 UNK        -0.4246 
     55 CA         32.3242   32.0462    2.9568 C.3       9 UNK         0.0261 
     56 CB         33.3641   32.8771    2.1739 C.3       9 UNK        -0.1959 
     57 C          32.8897   31.4478    4.2584 C.2       9 UNK         0.5033 
     58 O          33.8740   31.9722    4.7843 O.2       9 UNK        -0.5390 
     59 N          32.2617   30.3766    4.7687 N.am      10 UNK        -0.4215 
     60 CA         32.5248   29.6579    6.0274 C.3       10 UNK         0.0240 
     61 CB         32.3000   30.5711    7.2477 C.3       10 UNK        -0.1982 
     62 C          33.8832   28.9350    6.1224 C.2       10 UNK         0.4970 
     63 O          33.9244   27.8479    6.6963 O.2       10 UNK        -0.4916 
     64 N          34.9408   29.5350    5.5621 N.am      11 UNK        -0.4279 
     65 CA         36.3164   29.0344    5.3841 C.3       11 UNK         0.1003 
     66 C          37.0607   28.5059    6.6501 C.2       11 UNK         0.5709 
     67 N          36.6173   28.8265    7.8593 N.am      11 UNK        -0.7358 
     68 O          38.0881   27.8400    6.5409 O.2       11 UNK        -0.4999 
     69 C69        36.4810   28.1508    4.1108 C.3       12 UNK        -0.0954 
     70 S70        35.6629   26.5209    4.1669 S.3       12 UNK        -0.2268 
     71 C71        34.1852   26.8568    3.1614 C.3       12 UNK         0.0203 
     72 H72        27.9990   23.8789    2.8052 H         1 UNK         0.0888 
     73 H73        26.5764   22.8211    2.8322 H         1 UNK         0.0888 
     74 H74        28.1185   22.2584    3.4766 H         1 UNK         0.0888 
     75 H75        28.0006   24.1586    0.4927 H         1 UNK         0.3017 
     76 H76        28.0705   21.8839   -1.2938 H         1 UNK         0.0873 
     77 H77        30.3669   22.5175   -2.2587 H         1 UNK         0.0745 
     78 H78        30.3477   21.6035   -0.7912 H         1 UNK         0.0745 
     79 H79        32.7728   22.4779    0.7027 H         1 UNK         0.0705 
     80 H80        31.1606   22.1157    1.2701 H         1 UNK         0.0705 
     81 H81        33.5657   25.0162    1.2388 H         1 UNK         0.1334 
     82 H82        32.6013   26.1596    5.2559 H         1 UNK         0.1417 
     83 H83        30.5981   22.8362    3.4391 H         1 UNK         0.1562 
     84 H84        31.2280   24.7389    6.6172 H         1 UNK         0.0748 
     85 H85        30.8147   23.1529    6.0242 H         1 UNK         0.0748 
     86 H86        30.1345   26.8341    5.7591 H         1 UNK         0.0940 
     87 H87        28.4872   26.9499    6.3142 H         1 UNK         0.0940 
     88 H88        29.3610   26.5805    3.4005 H         1 UNK         0.0703 
     89 H89        26.7830   26.1877    4.5522 H         1 UNK         0.3081 
     90 H90        25.3981   25.0110    2.6882 H         1 UNK         0.0719 
     91 H91        24.4030   27.8332    3.3589 H         1 UNK         0.0809 
     92 H92        23.3434   26.4326    3.2310 H         1 UNK         0.0809 
     93 H93        24.5936   26.4762    4.4557 H         1 UNK         0.0809 
     94 H94        24.9565   25.2718    0.5361 H         1 UNK         0.2990 
     95 H95        23.9858   26.1477   -1.4038 H         1 UNK         0.0690 
     96 H96        23.8724   28.0326   -2.9976 H         1 UNK         0.0788 
     97 H97        24.6044   29.1329   -1.8364 H         1 UNK         0.0788 
     98 H98        22.9920   28.4942   -1.5565 H         1 UNK         0.0788 
     99 H99        26.6089   26.8206   -0.7292 H         1 UNK         0.2993 
    100 H100       28.2604   25.9618   -3.7755 H         1 UNK         0.0949 
    101 H101       29.8740   27.3390   -2.5487 H         1 UNK         0.0767 
    102 H102       28.5016   28.3514   -2.9655 H         1 UNK         0.0767 
    103 H103       28.6828   27.7513   -1.3217 H         1 UNK         0.0767 
    104 H104       29.0628   25.3315   -1.1516 H         1 UNK         0.3013 
    105 H105       26.8822   28.8365    4.4202 H         1 UNK         0.3121 
    106 H106       28.4630   31.1500    4.8498 H         1 UNK         0.0774 
    107 H107       26.2951   32.3625    4.5408 H         1 UNK         0.0815 
    108 H108       25.5451   30.8943    3.9308 H         1 UNK         0.0815 
    109 H109       26.1072   30.9769    5.6011 H         1 UNK         0.0815 
    110 H110       26.9361   29.8762    1.8599 H         1 UNK         0.2987 
    111 H111       27.7922   32.0485    0.1658 H         1 UNK         0.0949 
    112 H112       26.8773   29.2023   -0.4825 H         1 UNK         0.0806 
    113 H113       25.8548   30.6352   -0.4144 H         1 UNK         0.0806 
    114 H114       27.0789   30.4871   -1.6675 H         1 UNK         0.0806 
    115 H115       29.3378   29.1494    1.3429 H         1 UNK         0.3010 
    116 H116       31.6262   29.3146   -0.5049 H         1 UNK         0.0829 
    117 H117       30.7144   27.0903    0.2738 H         1 UNK         0.0813 
    118 H118       32.4032   27.3258    0.6788 H         1 UNK         0.0813 
    119 H119       31.1764   27.5035    1.9239 H         1 UNK         0.0813 
    120 H120       30.6623   31.1997    1.9988 H         1 UNK         0.3038 
    121 H121       31.5381   32.7332    3.2732 H         1 UNK         0.0769 
    122 H122       33.7319   33.7102    2.7741 H         1 UNK         0.0811 
    123 H123       32.9328   33.3002    1.2667 H         1 UNK         0.0811 
    124 H124       34.2294   32.2784    1.8879 H         1 UNK         0.0811 
    125 H125       31.4779   29.9976    4.2373 H         1 UNK         0.3204 
    126 H126       31.7651   28.8756    6.0664 H         1 UNK         0.0748 
    127 H127       32.3978   30.0093    8.1778 H         1 UNK         0.0771 
    128 H128       33.0214   31.3879    7.2854 H         1 UNK         0.0771 
    129 H129       31.3008   31.0064    7.2365 H         1 UNK         0.0771 
    130 H130       34.7673   30.4655    5.1868 H         1 UNK         0.2980 
    131 H131       36.8723   29.9456    5.1613 H         1 UNK         0.0545 
    132 H132       37.1131   28.4955    8.6716 H         1 UNK         0.3459 
    133 H133       35.7698   29.3602    7.9642 H         1 UNK         0.3459 
    134 H134       36.1149   28.6991    3.2411 H         1 UNK         0.0616 
    135 H135       37.5399   27.9800    3.9104 H         1 UNK         0.0616 
    136 H136       34.4910   27.0361    2.1296 H         1 UNK         0.0634 
    137 H137       33.7021   27.7739    3.4987 H         1 UNK         0.0634 
@<TRIPOS>BOND
     1    1    2 1    
     2    1   72 1    
     3    1   73 1    
     4    1   74 1    
     5    2    3 2    
     6    2    4 am   BACKBONE|DICT|INTERRES
     7    4    5 1    
     8    4   75 1    
     9    5    6 1    
    10    5   35 1    
    11    5   76 1    
    12    6    7 1    
    13    6   77 1    
    14    6   78 1    
    15    7    8 1    
    16    8    9 1    
    17    8   79 1    
    18    8   80 1    
    19    9   10 ar   
    20    9   14 ar   
    21   10   11 ar   
    22   10   81 1    
    23   11   12 ar   
    24   11   71 1    
    25   12   13 ar   
    26   12   82 1    
    27   13   14 ar   
    28   13   15 1    
    29   14   83 1    
    30   15   16 1    
    31   15   84 1    
    32   15   85 1    
    33   16   17 1    
    34   17   18 1    
    35   17   86 1    
    36   17   87 1    
    37   18   19 1    
    38   18   37 1    
    39   18   88 1    
    40   19   20 am   BACKBONE|DICT|INTERRES
    41   19   89 1    
    42   20   21 2    
    43   20   22 1    
    44   22   23 1    
    45   22   24 1    
    46   22   90 1    
    47   23   91 1    
    48   23   92 1    
    49   23   93 1    
    50   24   25 am   BACKBONE|DICT|INTERRES
    51   24   94 1    
    52   25   26 2    
    53   25   27 1    
    54   27   28 1    
    55   27   29 1    
    56   27   95 1    
    57   28   96 1    
    58   28   97 1    
    59   28   98 1    
    60   29   30 am   BACKBONE|DICT|INTERRES
    61   29   99 1    
    62   30   31 2    
    63   30   32 1    
    64   32   33 1    
    65   32   34 1    
    66   32  100 1    
    67   33  101 1    
    68   33  102 1    
    69   33  103 1    
    70   34   35 am   BACKBONE|DICT|INTERRES
    71   34  104 1    
    72   35   36 2    
    73   37   38 2    
    74   37   39 am   BACKBONE|DICT|INTERRES
    75   39   40 1    
    76   39  105 1    
    77   40   41 1    
    78   40   42 1    
    79   40  106 1    
    80   41  107 1    
    81   41  108 1    
    82   41  109 1    
    83   42   43 2    
    84   42   44 am   BACKBONE|DICT|INTERRES
    85   44   45 1    
    86   44  110 1    
    87   45   46 1    
    88   45   47 1    
    89   45  111 1    
    90   46  112 1    
    91   46  113 1    
    92   46  114 1    
    93   47   48 2    
    94   47   49 am   BACKBONE|DICT|INTERRES
    95   49   50 1    
    96   49  115 1    
    97   50   51 1    
    98   50   52 1    
    99   50  116 1    
   100   51  117 1    
   101   51  118 1    
   102   51  119 1    
   103   52   53 2    
   104   52   54 am   BACKBONE|DICT|INTERRES
   105   54   55 1    
   106   54  120 1    
   107   55   56 1    
   108   55   57 1    
   109   55  121 1    
   110   56  122 1    
   111   56  123 1    
   112   56  124 1    
   113   57   58 2    
   114   57   59 am   BACKBONE|DICT|INTERRES
   115   59   60 1    
   116   59  125 1    
   117   60   61 1    
   118   60   62 1    
   119   60  126 1    
   120   61  127 1    
   121   61  128 1    
   122   61  129 1    
   123   62   63 2    
   124   62   64 am   BACKBONE|DICT|INTERRES
   125   64   65 1    
   126   64  130 1    
   127   65   66 1    
   128   65   69 1    
   129   65  131 1    
   130   66   67 am   BACKBONE|DICT|INTERRES
   131   66   68 2    
   132   67  132 1    
   133   67  133 1    
   134   69   70 1    
   135   69  134 1    
   136   69  135 1    
   137   70   71 1    
   138   71  136 1    
   139   71  137 1    
@<TRIPOS>SUBSTRUCTURE
     1 UNK         1 GROUP             0       ****    0 ROOT    
