@<TRIPOS>MOLECULE
3R136
137   139    1
SMALL
USER_CHARGES


@<TRIPOS>ATOM
      1 CA         29.7011   20.8231   -3.3210 C.3       0 UNK        -0.1979 
      2 C          29.3619   22.0417   -2.4765 C.2       0 UNK         0.4864 
      3 O          28.6733   22.9437   -2.9537 O.2       0 UNK        -0.5359 
      4 N          29.8238   22.0709   -1.2171 N.am      1 UNK        -0.4318 
      5 CA         29.6299   23.1762   -0.2667 C.3       1 UNK         0.0824 
      6 C6         30.4660   22.9604    1.0179 C.3       12 UNK        -0.0944 
      7 S7         30.6542   24.4825    2.0044 S.3       12 UNK        -0.2672 
      8 C8         29.7629   24.0094    3.5187 C.3       12 UNK         0.0333 
      9 C9         29.5213   25.2158    4.4103 C.ar      12 UNK        -0.0807 
     10 C10        30.5898   25.8213    5.0762 C.ar      12 UNK        -0.0894 
     11 C11        30.3896   26.9586    5.8701 C.ar      12 UNK        -0.0804 
     12 C12        29.0930   27.4694    5.9974 C.ar      12 UNK        -0.0824 
     13 C13        28.0084   26.8608    5.3561 C.ar      12 UNK        -0.0762 
     14 C14        28.2315   25.7267    4.5692 C.ar      12 UNK        -0.0782 
     15 C15        26.6030   27.4335    5.5374 C.3       12 UNK         0.0230 
     16 S16        25.6121   27.5003    4.0026 S.3       12 UNK        -0.2608 
     17 C17        26.7089   28.4393    2.8886 C.3       12 UNK        -0.0989 
     18 CA         27.0877   27.6111    1.6299 C.3       5 UNK         0.0716 
     19 N          25.9504   27.3456    0.7380 N.am      5 UNK        -0.4135 
     20 C          25.2240   28.2554    0.0683 C.2       4 UNK         0.5031 
     21 O          25.4247   29.4704    0.1150 O.2       4 UNK        -0.5229 
     22 CA         24.0495   27.7179   -0.7755 C.3       4 UNK         0.0329 
     23 CB         23.4885   28.7636   -1.7641 C.3       4 UNK        -0.2001 
     24 N          24.3421   26.4594   -1.4699 N.am      4 UNK        -0.4303 
     25 C          25.2780   26.2271   -2.4008 C.2       3 UNK         0.5044 
     26 O          26.0933   27.0662   -2.7867 O.2       3 UNK        -0.5152 
     27 CA         25.2985   24.7975   -2.9825 C.3       3 UNK         0.0319 
     28 CB         26.1562   24.6954   -4.2568 C.3       3 UNK        -0.2001 
     29 N          25.7817   23.8217   -2.0025 N.am      3 UNK        -0.4354 
     30 C          25.1101   23.4169   -0.9122 C.2       2 UNK         0.4964 
     31 O          23.9470   23.7489   -0.6768 O.2       2 UNK        -0.5047 
     32 CA         25.8367   22.5156    0.1067 C.3       2 UNK         0.0288 
     33 CB         25.2676   21.0878    0.0619 C.3       2 UNK        -0.2113 
     34 N          27.2913   22.4487   -0.0518 N.am      2 UNK        -0.4145 
     35 C          28.1454   23.4790    0.0411 C.2       1 UNK         0.5006 
     36 O          27.8004   24.6351    0.2983 O.2       1 UNK        -0.5103 
     37 C          28.2580   28.2323    0.8464 C.2       5 UNK         0.5055 
     38 O          28.5619   29.4145    1.0148 O.2       5 UNK        -0.5220 
     39 N          28.8959   27.4217   -0.0092 N.am      6 UNK        -0.4450 
     40 CA         29.9831   27.8588   -0.8961 C.3       6 UNK         0.0367 
     41 CB         30.3813   26.7138   -1.8396 C.3       6 UNK        -0.1929 
     42 C          31.2260   28.3977   -0.1592 C.2       6 UNK         0.5070 
     43 O          31.9392   29.2299   -0.7198 O.2       6 UNK        -0.5237 
     44 N          31.4554   27.9301    1.0754 N.am      7 UNK        -0.4739 
     45 CA         32.5563   28.3511    1.9440 C.3       7 UNK         0.0276 
     46 CB         33.2312   27.1038    2.5398 C.3       7 UNK        -0.1927 
     47 C          32.1125   29.3392    3.0402 C.2       7 UNK         0.5013 
     48 O          32.8383   29.4959    4.0253 O.2       7 UNK        -0.5193 
     49 N          30.9608   30.0122    2.8714 N.am      8 UNK        -0.4253 
     50 CA         30.4722   31.0632    3.7755 C.3       8 UNK         0.0242 
     51 CB         29.1591   31.6583    3.2423 C.3       8 UNK        -0.2000 
     52 C          31.5169   32.1754    3.9809 C.2       8 UNK         0.4948 
     53 O          31.9385   32.7995    3.0055 O.2       8 UNK        -0.5275 
     54 N          31.9435   32.3478    5.2398 N.am      9 UNK        -0.4246 
     55 CA         33.0202   33.2269    5.7184 C.3       9 UNK         0.0261 
     56 CB         32.7347   34.7067    5.3826 C.3       9 UNK        -0.1959 
     57 C          34.4468   32.8046    5.3004 C.2       9 UNK         0.5033 
     58 O          35.3954   33.4906    5.6856 O.2       9 UNK        -0.5390 
     59 N          34.6002   31.6910    4.5685 N.am      10 UNK        -0.4215 
     60 CA         35.8943   31.0876    4.2365 C.3       10 UNK         0.0240 
     61 CB         35.8429   30.4823    2.8241 C.3       10 UNK        -0.1982 
     62 C          36.2994   30.0228    5.2696 C.2       10 UNK         0.4970 
     63 O          37.4970   29.7908    5.4406 O.2       10 UNK        -0.4916 
     64 N          35.3134   29.4063    5.9404 N.am      11 UNK        -0.4279 
     65 CA         35.4964   28.4793    7.0690 C.3       11 UNK         0.1003 
     66 C          36.3114   29.1009    8.2387 C.2       11 UNK         0.5709 
     67 N          37.1973   28.3324    8.8580 N.am      11 UNK        -0.7358 
     68 O          36.1120   30.2545    8.6162 O.2       11 UNK        -0.4999 
     69 C69        34.1387   27.9546    7.6049 C.3       12 UNK        -0.0954 
     70 S70        33.2006   26.9882    6.3776 S.3       12 UNK        -0.2268 
     71 C71        31.5212   27.6674    6.6210 C.3       12 UNK         0.0203 
     72 H72        30.2592   21.1261   -4.2065 H         1 UNK         0.0888 
     73 H73        30.3029   20.0997   -2.7713 H         1 UNK         0.0888 
     74 H74        28.7873   20.3274   -3.6473 H         1 UNK         0.0888 
     75 H75        30.3807   21.2971   -0.8821 H         1 UNK         0.3017 
     76 H76        30.0177   24.0602   -0.7689 H         1 UNK         0.0873 
     77 H77        30.0485   22.1557    1.6261 H         1 UNK         0.0745 
     78 H78        31.4741   22.6381    0.7522 H         1 UNK         0.0745 
     79 H79        28.8152   23.5404    3.2488 H         1 UNK         0.0705 
     80 H80        30.3404   23.2594    4.0612 H         1 UNK         0.0705 
     81 H81        31.5751   25.3961    4.9558 H         1 UNK         0.1334 
     82 H82        28.9270   28.3442    6.6116 H         1 UNK         0.1417 
     83 H83        27.3999   25.2481    4.0702 H         1 UNK         0.1562 
     84 H84        26.6529   28.4418    5.9517 H         1 UNK         0.0748 
     85 H85        26.0710   26.8261    6.2706 H         1 UNK         0.0748 
     86 H86        27.6077   28.7228    3.4378 H         1 UNK         0.0940 
     87 H87        26.2229   29.3777    2.6180 H         1 UNK         0.0940 
     88 H88        27.4429   26.6395    1.9740 H         1 UNK         0.0703 
     89 H89        25.7287   26.3697    0.6043 H         1 UNK         0.3081 
     90 H90        23.2563   27.4883   -0.0625 H         1 UNK         0.0719 
     91 H91        24.2438   29.0877   -2.4809 H         1 UNK         0.0809 
     92 H92        22.6420   28.3669   -2.3244 H         1 UNK         0.0809 
     93 H93        23.1377   29.6523   -1.2380 H         1 UNK         0.0809 
     94 H94        23.7901   25.6566   -1.1800 H         1 UNK         0.2990 
     95 H95        24.2732   24.5368   -3.2537 H         1 UNK         0.0690 
     96 H96        26.1278   23.6894   -4.6758 H         1 UNK         0.0788 
     97 H97        27.1999   24.9461   -4.0624 H         1 UNK         0.0788 
     98 H98        25.7948   25.3788   -5.0263 H         1 UNK         0.0788 
     99 H99        26.7391   23.5114   -2.1264 H         1 UNK         0.2993 
    100 H100       25.6363   22.9351    1.0949 H         1 UNK         0.0949 
    101 H101       24.1873   21.0910    0.2151 H         1 UNK         0.0767 
    102 H102       25.4589   20.6077   -0.8988 H         1 UNK         0.0767 
    103 H103       25.6998   20.4625    0.8435 H         1 UNK         0.0767 
    104 H104       27.6737   21.5451   -0.2892 H         1 UNK         0.3013 
    105 H105       28.5885   26.4556   -0.0766 H         1 UNK         0.3121 
    106 H106       29.5843   28.6735   -1.5043 H         1 UNK         0.0774 
    107 H107       30.9755   25.9609   -1.3231 H         1 UNK         0.0815 
    108 H108       30.9945   27.0908   -2.6590 H         1 UNK         0.0815 
    109 H109       29.5114   26.2276   -2.2829 H         1 UNK         0.0815 
    110 H110       30.8184   27.2432    1.4560 H         1 UNK         0.2987 
    111 H111       33.3097   28.8760    1.3535 H         1 UNK         0.0949 
    112 H112       32.5524   26.5576    3.1915 H         1 UNK         0.0806 
    113 H113       33.5671   26.4216    1.7589 H         1 UNK         0.0806 
    114 H114       34.1058   27.3692    3.1352 H         1 UNK         0.0806 
    115 H115       30.4044   29.8327    2.0432 H         1 UNK         0.3010 
    116 H116       30.2623   30.5892    4.7366 H         1 UNK         0.0829 
    117 H117       29.2743   32.0424    2.2279 H         1 UNK         0.0813 
    118 H118       28.3602   30.9196    3.2310 H         1 UNK         0.0813 
    119 H119       28.8194   32.4848    3.8681 H         1 UNK         0.0813 
    120 H120       31.5339   31.7607    5.9536 H         1 UNK         0.3038 
    121 H121       33.0014   33.1366    6.8056 H         1 UNK         0.0769 
    122 H122       32.8170   34.9059    4.3139 H         1 UNK         0.0811 
    123 H123       33.4437   35.3648    5.8864 H         1 UNK         0.0811 
    124 H124       31.7364   35.0025    5.7047 H         1 UNK         0.0811 
    125 H125       33.7782   31.1521    4.3092 H         1 UNK         0.3204 
    126 H126       36.6668   31.8595    4.2359 H         1 UNK         0.0748 
    127 H127       36.8339   30.1516    2.5105 H         1 UNK         0.0771 
    128 H128       35.1870   29.6145    2.7772 H         1 UNK         0.0771 
    129 H129       35.4954   31.2096    2.0901 H         1 UNK         0.0771 
    130 H130       34.3564   29.5916    5.6727 H         1 UNK         0.2980 
    131 H131       36.0613   27.6284    6.6834 H         1 UNK         0.0545 
    132 H132       37.7222   28.7143    9.6293 H         1 UNK         0.3459 
    133 H133       37.3579   27.3811    8.5653 H         1 UNK         0.3459 
    134 H134       34.2934   27.3042    8.4680 H         1 UNK         0.0616 
    135 H135       33.5289   28.7881    7.9590 H         1 UNK         0.0616 
    136 H136       31.2925   27.6391    7.6873 H         1 UNK         0.0634 
    137 H137       31.5326   28.7186    6.3301 H         1 UNK         0.0634 
@<TRIPOS>BOND
     1    1    2 1    
     2    1   72 1    
     3    1   73 1    
     4    1   74 1    
     5    2    3 2    
     6    2    4 am   BACKBONE|DICT|INTERRES
     7    4    5 1    
     8    4   75 1    
     9    5    6 1    
    10    5   35 1    
    11    5   76 1    
    12    6    7 1    
    13    6   77 1    
    14    6   78 1    
    15    7    8 1    
    16    8    9 1    
    17    8   79 1    
    18    8   80 1    
    19    9   10 ar   
    20    9   14 ar   
    21   10   11 ar   
    22   10   81 1    
    23   11   12 ar   
    24   11   71 1    
    25   12   13 ar   
    26   12   82 1    
    27   13   14 ar   
    28   13   15 1    
    29   14   83 1    
    30   15   16 1    
    31   15   84 1    
    32   15   85 1    
    33   16   17 1    
    34   17   18 1    
    35   17   86 1    
    36   17   87 1    
    37   18   19 1    
    38   18   37 1    
    39   18   88 1    
    40   19   20 am   BACKBONE|DICT|INTERRES
    41   19   89 1    
    42   20   21 2    
    43   20   22 1    
    44   22   23 1    
    45   22   24 1    
    46   22   90 1    
    47   23   91 1    
    48   23   92 1    
    49   23   93 1    
    50   24   25 am   BACKBONE|DICT|INTERRES
    51   24   94 1    
    52   25   26 2    
    53   25   27 1    
    54   27   28 1    
    55   27   29 1    
    56   27   95 1    
    57   28   96 1    
    58   28   97 1    
    59   28   98 1    
    60   29   30 am   BACKBONE|DICT|INTERRES
    61   29   99 1    
    62   30   31 2    
    63   30   32 1    
    64   32   33 1    
    65   32   34 1    
    66   32  100 1    
    67   33  101 1    
    68   33  102 1    
    69   33  103 1    
    70   34   35 am   BACKBONE|DICT|INTERRES
    71   34  104 1    
    72   35   36 2    
    73   37   38 2    
    74   37   39 am   BACKBONE|DICT|INTERRES
    75   39   40 1    
    76   39  105 1    
    77   40   41 1    
    78   40   42 1    
    79   40  106 1    
    80   41  107 1    
    81   41  108 1    
    82   41  109 1    
    83   42   43 2    
    84   42   44 am   BACKBONE|DICT|INTERRES
    85   44   45 1    
    86   44  110 1    
    87   45   46 1    
    88   45   47 1    
    89   45  111 1    
    90   46  112 1    
    91   46  113 1    
    92   46  114 1    
    93   47   48 2    
    94   47   49 am   BACKBONE|DICT|INTERRES
    95   49   50 1    
    96   49  115 1    
    97   50   51 1    
    98   50   52 1    
    99   50  116 1    
   100   51  117 1    
   101   51  118 1    
   102   51  119 1    
   103   52   53 2    
   104   52   54 am   BACKBONE|DICT|INTERRES
   105   54   55 1    
   106   54  120 1    
   107   55   56 1    
   108   55   57 1    
   109   55  121 1    
   110   56  122 1    
   111   56  123 1    
   112   56  124 1    
   113   57   58 2    
   114   57   59 am   BACKBONE|DICT|INTERRES
   115   59   60 1    
   116   59  125 1    
   117   60   61 1    
   118   60   62 1    
   119   60  126 1    
   120   61  127 1    
   121   61  128 1    
   122   61  129 1    
   123   62   63 2    
   124   62   64 am   BACKBONE|DICT|INTERRES
   125   64   65 1    
   126   64  130 1    
   127   65   66 1    
   128   65   69 1    
   129   65  131 1    
   130   66   67 am   BACKBONE|DICT|INTERRES
   131   66   68 2    
   132   67  132 1    
   133   67  133 1    
   134   69   70 1    
   135   69  134 1    
   136   69  135 1    
   137   70   71 1    
   138   71  136 1    
   139   71  137 1    
@<TRIPOS>SUBSTRUCTURE
     1 UNK         1 GROUP             0       ****    0 ROOT    
