@<TRIPOS>MOLECULE
3R136
137   139    1
SMALL
USER_CHARGES


@<TRIPOS>ATOM
      1 CA         27.9976   19.3496   -0.3042 C.3       0 UNK        -0.1979 
      2 C          28.2743   20.7810    0.1309 C.2       0 UNK         0.4864 
      3 O          28.1315   21.7029   -0.6735 O.2       0 UNK        -0.5359 
      4 N          28.6719   20.9729    1.3952 N.am      1 UNK        -0.4318 
      5 CA         28.9531   22.2758    2.0038 C.3       1 UNK         0.0824 
      6 C6         29.8804   22.1466    3.2396 C.3       12 UNK        -0.0944 
      7 S7         31.4876   21.3693    2.8535 S.3       12 UNK        -0.2672 
      8 C8         32.6676   22.5398    3.6075 C.3       12 UNK         0.0333 
      9 C9         33.2817   23.5198    2.6113 C.ar      12 UNK        -0.0807 
     10 C10        34.6581   23.7552    2.6480 C.ar      12 UNK        -0.0894 
     11 C11        35.2497   24.6642    1.7691 C.ar      12 UNK        -0.0804 
     12 C12        34.4524   25.3411    0.8418 C.ar      12 UNK        -0.0824 
     13 C13        33.0710   25.1237    0.7847 C.ar      12 UNK        -0.0762 
     14 C14        32.4967   24.2082    1.6789 C.ar      12 UNK        -0.0782 
     15 C15        32.2660   25.8984   -0.2662 C.3       12 UNK         0.0230 
     16 S16        30.4669   25.5764   -0.3424 S.3       12 UNK        -0.2608 
     17 C17        29.8640   26.3784    1.1798 C.3       12 UNK        -0.0989 
     18 CA         29.5254   27.8792    1.0076 C.3       5 UNK         0.0716 
     19 N          28.5736   28.1502   -0.0761 N.am      5 UNK        -0.4135 
     20 C          28.2817   29.3838   -0.5198 C.2       4 UNK         0.5031 
     21 O          28.7866   30.4110   -0.0667 O.2       4 UNK        -0.5229 
     22 CA         27.2137   29.5109   -1.6191 C.3       4 UNK         0.0329 
     23 CB         27.8519   29.3512   -3.0077 C.3       4 UNK        -0.2001 
     24 N          26.1030   28.5675   -1.4797 N.am      4 UNK        -0.4303 
     25 C          25.3164   28.4434   -0.4016 C.2       3 UNK         0.5044 
     26 O          25.4330   29.1265    0.6163 O.2       3 UNK        -0.5152 
     27 CA         24.2481   27.3365   -0.4334 C.3       3 UNK         0.0319 
     28 CB         23.9533   26.7838   -1.8471 C.3       3 UNK        -0.2001 
     29 N          24.5790   26.2381    0.4820 N.am      3 UNK        -0.4354 
     30 C          25.7061   25.5104    0.4973 C.2       2 UNK         0.4964 
     31 O          26.6758   25.7155   -0.2396 O.2       2 UNK        -0.5047 
     32 CA         25.7496   24.3588    1.5098 C.3       2 UNK         0.0288 
     33 CB         24.6065   23.3488    1.2775 C.3       2 UNK        -0.2113 
     34 N          27.0329   23.6721    1.3983 N.am      2 UNK        -0.4145 
     35 C          27.6235   22.9674    2.3670 C.2       1 UNK         0.5006 
     36 O          27.1430   22.8232    3.4936 O.2       1 UNK        -0.5103 
     37 C          29.0316   28.4485    2.3497 C.2       5 UNK         0.5055 
     38 O          29.8270   29.0237    3.0928 O.2       5 UNK        -0.5220 
     39 N          27.7298   28.2854    2.6245 N.am      6 UNK        -0.4450 
     40 CA         27.0703   28.7821    3.8307 C.3       6 UNK         0.0367 
     41 CB         25.7127   28.0819    4.0041 C.3       6 UNK        -0.1929 
     42 C          26.9061   30.3084    3.8046 C.2       6 UNK         0.5070 
     43 O          27.1441   30.9557    4.8232 O.2       6 UNK        -0.5237 
     44 N          26.5365   30.8555    2.6375 N.am      7 UNK        -0.4739 
     45 CA         26.3841   32.2925    2.3967 C.3       7 UNK         0.0276 
     46 CB         25.7633   32.5181    1.0091 C.3       7 UNK        -0.1927 
     47 C          27.7045   33.0684    2.5348 C.2       7 UNK         0.5013 
     48 O          27.7138   34.1399    3.1419 O.2       7 UNK        -0.5193 
     49 N          28.7943   32.5082    1.9913 N.am      8 UNK        -0.4253 
     50 CA         30.1443   33.0669    2.0992 C.3       8 UNK         0.0242 
     51 CB         31.0185   32.4829    0.9768 C.3       8 UNK        -0.2000 
     52 C          30.8088   32.8115    3.4640 C.2       8 UNK         0.4948 
     53 O          31.7809   33.4983    3.7809 O.2       8 UNK        -0.5275 
     54 N          30.3108   31.8156    4.2163 N.am      9 UNK        -0.4246 
     55 CA         30.9116   31.2209    5.4195 C.3       9 UNK         0.0261 
     56 CB         30.9160   32.2190    6.5965 C.3       9 UNK        -0.1959 
     57 C          32.3024   30.6318    5.1073 C.2       9 UNK         0.5033 
     58 O          33.2798   30.9206    5.8026 O.2       9 UNK        -0.5390 
     59 N          32.3624   29.8612    4.0139 N.am      10 UNK        -0.4215 
     60 CA         33.5854   29.3461    3.4051 C.3       10 UNK         0.0240 
     61 CB         33.2464   28.7271    2.0408 C.3       10 UNK        -0.1982 
     62 C          34.2987   28.3187    4.2940 C.2       10 UNK         0.4970 
     63 O          33.6550   27.3943    4.7953 O.2       10 UNK        -0.4916 
     64 N          35.6192   28.4929    4.4265 N.am      11 UNK        -0.4279 
     65 CA         36.5607   27.5738    5.0897 C.3       11 UNK         0.1003 
     66 C          36.3352   27.3798    6.6212 C.2       11 UNK         0.5709 
     67 N          35.5863   28.2463    7.2939 N.am      11 UNK        -0.7358 
     68 O          36.8776   26.4541    7.2208 O.2       11 UNK        -0.4999 
     69 C69        36.7190   26.2305    4.3186 C.3       12 UNK        -0.0954 
     70 S70        37.1913   26.4905    2.5718 S.3       12 UNK        -0.2268 
     71 C71        36.7538   24.8965    1.8111 C.3       12 UNK         0.0203 
     72 H72        28.1739   18.6369    0.5013 H         1 UNK         0.0888 
     73 H73        26.9612   19.2493   -0.6254 H         1 UNK         0.0888 
     74 H74        28.6419   19.0812   -1.1410 H         1 UNK         0.0888 
     75 H75        28.7681   20.1788    2.0118 H         1 UNK         0.3017 
     76 H76        29.4624   22.8985    1.2654 H         1 UNK         0.0873 
     77 H77        30.0471   23.1325    3.6772 H         1 UNK         0.0745 
     78 H78        29.4065   21.5477    4.0200 H         1 UNK         0.0745 
     79 H79        32.1973   23.0957    4.4192 H         1 UNK         0.0705 
     80 H80        33.4538   21.9444    4.0744 H         1 UNK         0.0705 
     81 H81        35.2740   23.2330    3.3676 H         1 UNK         0.1334 
     82 H82        34.9140   26.0428    0.1600 H         1 UNK         0.1417 
     83 H83        31.4366   24.0185    1.6563 H         1 UNK         0.1562 
     84 H84        32.6786   25.6607   -1.2476 H         1 UNK         0.0748 
     85 H85        32.4217   26.9683   -0.1266 H         1 UNK         0.0748 
     86 H86        30.6069   26.2517    1.9693 H         1 UNK         0.0940 
     87 H87        28.9823   25.8262    1.5090 H         1 UNK         0.0940 
     88 H88        30.4497   28.4039    0.7576 H         1 UNK         0.0703 
     89 H89        28.0930   27.3494   -0.4713 H         1 UNK         0.3081 
     90 H90        26.7938   30.5161   -1.5523 H         1 UNK         0.0719 
     91 H91        28.2599   28.3500   -3.1530 H         1 UNK         0.0809 
     92 H92        27.1288   29.5389   -3.8018 H         1 UNK         0.0809 
     93 H93        28.6704   30.0597   -3.1440 H         1 UNK         0.0809 
     94 H94        25.9488   27.9321   -2.2489 H         1 UNK         0.2990 
     95 H95        23.3300   27.7920   -0.0590 H         1 UNK         0.0690 
     96 H96        23.1142   26.0883   -1.8231 H         1 UNK         0.0788 
     97 H97        24.8042   26.2500   -2.2722 H         1 UNK         0.0788 
     98 H98        23.6808   27.5844   -2.5364 H         1 UNK         0.0788 
     99 H99        23.8600   26.0117    1.1550 H         1 UNK         0.2993 
    100 H100       25.6594   24.7931    2.5079 H         1 UNK         0.0949 
    101 H101       24.6540   22.5246    1.9896 H         1 UNK         0.0767 
    102 H102       23.6271   23.8128    1.3971 H         1 UNK         0.0767 
    103 H103       24.6481   22.9226    0.2741 H         1 UNK         0.0767 
    104 H104       27.4788   23.7530    0.4906 H         1 UNK         0.3013 
    105 H105       27.1358   27.8744    1.9188 H         1 UNK         0.3121 
    106 H106       27.6949   28.5289    4.6905 H         1 UNK         0.0774 
    107 H107       25.0409   28.2808    3.1685 H         1 UNK         0.0815 
    108 H108       25.2128   28.4250    4.9110 H         1 UNK         0.0815 
    109 H109       25.8318   27.0019    4.0906 H         1 UNK         0.0815 
    110 H110       26.3028   30.2358    1.8645 H         1 UNK         0.2987 
    111 H111       25.6931   32.6816    3.1477 H         1 UNK         0.0949 
    112 H112       26.4077   32.1429    0.2140 H         1 UNK         0.0806 
    113 H113       24.7980   32.0192    0.9202 H         1 UNK         0.0806 
    114 H114       25.5988   33.5803    0.8229 H         1 UNK         0.0806 
    115 H115       28.6949   31.6549    1.4467 H         1 UNK         0.3010 
    116 H116       30.0867   34.1485    1.9584 H         1 UNK         0.0829 
    117 H117       31.1205   31.4008    1.0698 H         1 UNK         0.0813 
    118 H118       30.5973   32.6952   -0.0060 H         1 UNK         0.0813 
    119 H119       32.0226   32.9086    0.9988 H         1 UNK         0.0813 
    120 H120       29.5148   31.3128    3.8465 H         1 UNK         0.3038 
    121 H121       30.2739   30.3807    5.6989 H         1 UNK         0.0769 
    122 H122       31.2633   31.7378    7.5115 H         1 UNK         0.0811 
    123 H123       31.5728   33.0688    6.4088 H         1 UNK         0.0811 
    124 H124       29.9152   32.6041    6.7911 H         1 UNK         0.0811 
    125 H125       31.4823   29.6078    3.5668 H         1 UNK         0.3204 
    126 H126       34.2491   30.1972    3.2383 H         1 UNK         0.0748 
    127 H127       34.1459   28.3605    1.5442 H         1 UNK         0.0771 
    128 H128       32.5671   27.8812    2.1502 H         1 UNK         0.0771 
    129 H129       32.7798   29.4536    1.3756 H         1 UNK         0.0771 
    130 H130       36.0454   29.2971    3.9902 H         1 UNK         0.2980 
    131 H131       37.5255   28.0789    5.0348 H         1 UNK         0.0545 
    132 H132       35.4566   28.1216    8.2853 H         1 UNK         0.3459 
    133 H133       35.1294   29.0072    6.8145 H         1 UNK         0.3459 
    134 H134       37.4879   25.6069    4.7775 H         1 UNK         0.0616 
    135 H135       35.7904   25.6617    4.3679 H         1 UNK         0.0616 
    136 H136       37.2580   24.0929    2.3503 H         1 UNK         0.0634 
    137 H137       37.1483   24.8748    0.7943 H         1 UNK         0.0634 
@<TRIPOS>BOND
     1    1    2 1    
     2    1   72 1    
     3    1   73 1    
     4    1   74 1    
     5    2    3 2    
     6    2    4 am   BACKBONE|DICT|INTERRES
     7    4    5 1    
     8    4   75 1    
     9    5    6 1    
    10    5   35 1    
    11    5   76 1    
    12    6    7 1    
    13    6   77 1    
    14    6   78 1    
    15    7    8 1    
    16    8    9 1    
    17    8   79 1    
    18    8   80 1    
    19    9   10 ar   
    20    9   14 ar   
    21   10   11 ar   
    22   10   81 1    
    23   11   12 ar   
    24   11   71 1    
    25   12   13 ar   
    26   12   82 1    
    27   13   14 ar   
    28   13   15 1    
    29   14   83 1    
    30   15   16 1    
    31   15   84 1    
    32   15   85 1    
    33   16   17 1    
    34   17   18 1    
    35   17   86 1    
    36   17   87 1    
    37   18   19 1    
    38   18   37 1    
    39   18   88 1    
    40   19   20 am   BACKBONE|DICT|INTERRES
    41   19   89 1    
    42   20   21 2    
    43   20   22 1    
    44   22   23 1    
    45   22   24 1    
    46   22   90 1    
    47   23   91 1    
    48   23   92 1    
    49   23   93 1    
    50   24   25 am   BACKBONE|DICT|INTERRES
    51   24   94 1    
    52   25   26 2    
    53   25   27 1    
    54   27   28 1    
    55   27   29 1    
    56   27   95 1    
    57   28   96 1    
    58   28   97 1    
    59   28   98 1    
    60   29   30 am   BACKBONE|DICT|INTERRES
    61   29   99 1    
    62   30   31 2    
    63   30   32 1    
    64   32   33 1    
    65   32   34 1    
    66   32  100 1    
    67   33  101 1    
    68   33  102 1    
    69   33  103 1    
    70   34   35 am   BACKBONE|DICT|INTERRES
    71   34  104 1    
    72   35   36 2    
    73   37   38 2    
    74   37   39 am   BACKBONE|DICT|INTERRES
    75   39   40 1    
    76   39  105 1    
    77   40   41 1    
    78   40   42 1    
    79   40  106 1    
    80   41  107 1    
    81   41  108 1    
    82   41  109 1    
    83   42   43 2    
    84   42   44 am   BACKBONE|DICT|INTERRES
    85   44   45 1    
    86   44  110 1    
    87   45   46 1    
    88   45   47 1    
    89   45  111 1    
    90   46  112 1    
    91   46  113 1    
    92   46  114 1    
    93   47   48 2    
    94   47   49 am   BACKBONE|DICT|INTERRES
    95   49   50 1    
    96   49  115 1    
    97   50   51 1    
    98   50   52 1    
    99   50  116 1    
   100   51  117 1    
   101   51  118 1    
   102   51  119 1    
   103   52   53 2    
   104   52   54 am   BACKBONE|DICT|INTERRES
   105   54   55 1    
   106   54  120 1    
   107   55   56 1    
   108   55   57 1    
   109   55  121 1    
   110   56  122 1    
   111   56  123 1    
   112   56  124 1    
   113   57   58 2    
   114   57   59 am   BACKBONE|DICT|INTERRES
   115   59   60 1    
   116   59  125 1    
   117   60   61 1    
   118   60   62 1    
   119   60  126 1    
   120   61  127 1    
   121   61  128 1    
   122   61  129 1    
   123   62   63 2    
   124   62   64 am   BACKBONE|DICT|INTERRES
   125   64   65 1    
   126   64  130 1    
   127   65   66 1    
   128   65   69 1    
   129   65  131 1    
   130   66   67 am   BACKBONE|DICT|INTERRES
   131   66   68 2    
   132   67  132 1    
   133   67  133 1    
   134   69   70 1    
   135   69  134 1    
   136   69  135 1    
   137   70   71 1    
   138   71  136 1    
   139   71  137 1    
@<TRIPOS>SUBSTRUCTURE
     1 UNK         1 GROUP             0       ****    0 ROOT    
