@<TRIPOS>MOLECULE
3R136
137   139    1
SMALL
USER_CHARGES


@<TRIPOS>ATOM
      1 CA         30.6371   21.1370   -4.7651 C.3       0 UNK        -0.1979 
      2 C          30.5882   22.3597   -3.8609 C.2       0 UNK         0.4864 
      3 O          31.3474   23.3060   -4.0728 O.2       0 UNK        -0.5359 
      4 N          29.7032   22.3449   -2.8538 N.am      1 UNK        -0.4318 
      5 CA         29.5017   23.4401   -1.8961 C.3       1 UNK         0.0824 
      6 C6         28.6820   22.9621   -0.6693 C.3       12 UNK        -0.0944 
      7 S7         28.9773   23.9706    0.8198 S.3       12 UNK        -0.2672 
      8 C8         30.3378   23.0344    1.5778 C.3       12 UNK         0.0333 
      9 C9         30.7710   23.6607    2.8919 C.ar      12 UNK        -0.0807 
     10 C10        31.7854   24.6211    2.9170 C.ar      12 UNK        -0.0894 
     11 C11        32.2008   25.1829    4.1283 C.ar      12 UNK        -0.0804 
     12 C12        31.5885   24.7808    5.3205 C.ar      12 UNK        -0.0824 
     13 C13        30.5530   23.8407    5.3022 C.ar      12 UNK        -0.0762 
     14 C14        30.1592   23.2742    4.0864 C.ar      12 UNK        -0.0782 
     15 C15        29.8394   23.4466    6.5870 C.3       12 UNK         0.0230 
     16 S16        28.0887   23.9551    6.5628 S.3       12 UNK        -0.2608 
     17 C17        28.2093   25.7676    6.7474 C.3       12 UNK        -0.0989 
     18 CA         28.3456   26.5333    5.4056 C.3       5 UNK         0.0716 
     19 N          27.3250   26.1542    4.4210 N.am      5 UNK        -0.4135 
     20 C          27.2227   26.6634    3.1857 C.2       4 UNK         0.5031 
     21 O          27.9909   27.5166    2.7298 O.2       4 UNK        -0.5229 
     22 CA         26.0592   26.1587    2.3200 C.3       4 UNK         0.0329 
     23 CB         24.6944   26.3984    2.9975 C.3       4 UNK        -0.2001 
     24 N          26.1107   26.8687    1.0460 N.am      4 UNK        -0.4303 
     25 C          25.5565   26.4935   -0.1098 C.2       3 UNK         0.5044 
     26 O          24.9083   25.4552   -0.2515 O.2       3 UNK        -0.5152 
     27 CA         25.7432   27.4337   -1.3145 C.3       3 UNK         0.0319 
     28 CB         26.4046   28.7847   -0.9708 C.3       3 UNK        -0.2001 
     29 N          26.5597   26.7541   -2.3126 N.am      3 UNK        -0.4354 
     30 C          26.1239   26.1988   -3.4470 C.2       2 UNK         0.4964 
     31 O          24.9597   26.2637   -3.8437 O.2       2 UNK        -0.5047 
     32 CA         27.1602   25.4268   -4.2861 C.3       2 UNK         0.0288 
     33 CB         28.0513   26.3872   -5.0991 C.3       2 UNK        -0.2113 
     34 N          27.9627   24.4599   -3.5193 N.am      2 UNK        -0.4145 
     35 C          28.8647   24.6860   -2.5489 C.2       1 UNK         0.5006 
     36 O          29.1889   25.8089   -2.1577 O.2       1 UNK        -0.5103 
     37 C          28.3565   28.0546    5.6603 C.2       5 UNK         0.5055 
     38 O          27.2897   28.6566    5.8046 O.2       5 UNK        -0.5220 
     39 N          29.5595   28.6424    5.6698 N.am      6 UNK        -0.4450 
     40 CA         29.8806   30.0743    5.7483 C.3       6 UNK         0.0367 
     41 CB         29.2965   30.7456    7.0055 C.3       6 UNK        -0.1929 
     42 C          29.5440   30.8627    4.4716 C.2       6 UNK         0.5070 
     43 O          30.3601   31.6756    4.0381 O.2       6 UNK        -0.5237 
     44 N          28.3829   30.5946    3.8633 N.am      7 UNK        -0.4739 
     45 CA         27.9424   31.1950    2.6014 C.3       7 UNK         0.0276 
     46 CB         26.4808   30.8014    2.3352 C.3       7 UNK        -0.1927 
     47 C          28.8389   30.8277    1.4039 C.2       7 UNK         0.5013 
     48 O          28.9920   31.6473    0.4980 O.2       7 UNK        -0.5193 
     49 N          29.4100   29.6146    1.4260 N.am      8 UNK        -0.4253 
     50 CA         30.3176   29.0831    0.4104 C.3       8 UNK         0.0242 
     51 CB         30.5995   27.5970    0.6934 C.3       8 UNK        -0.2000 
     52 C          31.6264   29.8787    0.2721 C.2       8 UNK         0.4948 
     53 O          31.9449   30.3073   -0.8385 O.2       8 UNK        -0.5275 
     54 N          32.3702   30.0482    1.3766 N.am      9 UNK        -0.4246 
     55 CA         33.7101   30.6476    1.3641 C.3       9 UNK         0.0261 
     56 CB         34.7244   29.6695    0.7244 C.3       9 UNK        -0.1959 
     57 C          34.1607   31.1148    2.7591 C.2       9 UNK         0.5033 
     58 O          35.3076   30.8632    3.1361 O.2       9 UNK        -0.5390 
     59 N          33.2672   31.7640    3.5223 N.am      10 UNK        -0.4215 
     60 CA         33.4523   32.3037    4.8847 C.3       10 UNK         0.0240 
     61 CB         34.5923   33.3397    4.9522 C.3       10 UNK        -0.1982 
     62 C          33.6039   31.2267    5.9753 C.2       10 UNK         0.4970 
     63 O          32.9576   31.3351    7.0172 O.2       10 UNK        -0.4916 
     64 N          34.4075   30.1955    5.6945 N.am      11 UNK        -0.4279 
     65 CA         34.5010   28.9143    6.4137 C.3       11 UNK         0.1003 
     66 C          35.0321   29.0022    7.8767 C.2       11 UNK         0.5709 
     67 N          35.6860   30.0864    8.2756 N.am      11 UNK        -0.7358 
     68 O          34.8841   28.0619    8.6541 O.2       11 UNK        -0.4999 
     69 C69        33.1984   28.0696    6.2830 C.3       12 UNK        -0.0954 
     70 S70        32.6653   27.8750    4.5417 S.3       12 UNK        -0.2268 
     71 C71        33.3104   26.2230    4.1409 C.3       12 UNK         0.0203 
     72 H72        29.9179   20.3759   -4.4628 H         1 UNK         0.0888 
     73 H73        30.4168   21.4221   -5.7935 H         1 UNK         0.0888 
     74 H74        31.6314   20.6919   -4.7403 H         1 UNK         0.0888 
     75 H75        29.1187   21.5307   -2.7248 H         1 UNK         0.3017 
     76 H76        30.4945   23.7370   -1.5501 H         1 UNK         0.0873 
     77 H77        27.6110   22.9585   -0.8829 H         1 UNK         0.0745 
     78 H78        28.9310   21.9277   -0.4264 H         1 UNK         0.0745 
     79 H79        31.1800   22.9932    0.8853 H         1 UNK         0.0705 
     80 H80        30.0232   22.0029    1.7444 H         1 UNK         0.0705 
     81 H81        32.2514   24.9289    1.9908 H         1 UNK         0.1334 
     82 H82        31.9025   25.2179    6.2580 H         1 UNK         0.1417 
     83 H83        29.3603   22.5451    4.0696 H         1 UNK         0.1562 
     84 H84        30.3331   23.8713    7.4626 H         1 UNK         0.0748 
     85 H85        29.8900   22.3630    6.7022 H         1 UNK         0.0748 
     86 H86        29.0483   25.9995    7.4065 H         1 UNK         0.0940 
     87 H87        27.3140   26.0975    7.2789 H         1 UNK         0.0940 
     88 H88        29.3012   26.2707    4.9517 H         1 UNK         0.0703 
     89 H89        26.6577   25.4623    4.7267 H         1 UNK         0.3081 
     90 H90        26.2072   25.0916    2.1417 H         1 UNK         0.0719 
     91 H91        24.5441   27.4532    3.2317 H         1 UNK         0.0809 
     92 H92        23.8709   26.0789    2.3588 H         1 UNK         0.0809 
     93 H93        24.6060   25.8397    3.9295 H         1 UNK         0.0809 
     94 H94        26.7136   27.6815    1.0686 H         1 UNK         0.2990 
     95 H95        24.7483   27.6411   -1.7137 H         1 UNK         0.0690 
     96 H96        26.4796   29.4170   -1.8557 H         1 UNK         0.0788 
     97 H97        27.4122   28.6608   -0.5739 H         1 UNK         0.0788 
     98 H98        25.8151   29.3363   -0.2380 H         1 UNK         0.0788 
     99 H99        27.5376   26.5991   -2.0747 H         1 UNK         0.2993 
    100 H100       26.5924   24.8305   -5.0025 H         1 UNK         0.0949 
    101 H101       28.6441   27.0404   -4.4581 H         1 UNK         0.0767 
    102 H102       28.7381   25.8386   -5.7437 H         1 UNK         0.0767 
    103 H103       27.4455   27.0284   -5.7408 H         1 UNK         0.0767 
    104 H104       27.7716   23.4920   -3.7371 H         1 UNK         0.3013 
    105 H105       30.3629   28.0535    5.4907 H         1 UNK         0.3121 
    106 H106       30.9631   30.1125    5.8416 H         1 UNK         0.0774 
    107 H107       29.6730   31.7644    7.1052 H         1 UNK         0.0815 
    108 H108       28.2086   30.8060    6.9741 H         1 UNK         0.0815 
    109 H109       29.5800   30.2071    7.9095 H         1 UNK         0.0815 
    110 H110       27.7741   29.9060    4.2944 H         1 UNK         0.2987 
    111 H111       27.9883   32.2800    2.7176 H         1 UNK         0.0949 
    112 H112       26.1206   31.2437    1.4054 H         1 UNK         0.0806 
    113 H113       26.3605   29.7210    2.2554 H         1 UNK         0.0806 
    114 H114       25.8258   31.1512    3.1333 H         1 UNK         0.0806 
    115 H115       29.1297   28.9730    2.1633 H         1 UNK         0.3010 
    116 H116       29.8028   29.1444   -0.5505 H         1 UNK         0.0829 
    117 H117       29.6877   27.0036    0.6212 H         1 UNK         0.0813 
    118 H118       31.3037   27.1847   -0.0305 H         1 UNK         0.0813 
    119 H119       31.0186   27.4409    1.6881 H         1 UNK         0.0813 
    120 H120       32.0442   29.6736    2.2575 H         1 UNK         0.3038 
    121 H121       33.6758   31.5495    0.7493 H         1 UNK         0.0769 
    122 H122       35.7226   30.1072    0.6803 H         1 UNK         0.0811 
    123 H123       34.4522   29.4106   -0.2984 H         1 UNK         0.0811 
    124 H124       34.7973   28.7431    1.2955 H         1 UNK         0.0811 
    125 H125       32.3195   31.8639    3.1726 H         1 UNK         0.3204 
    126 H126       32.5275   32.8370    5.1100 H         1 UNK         0.0748 
    127 H127       34.6273   33.8120    5.9348 H         1 UNK         0.0771 
    128 H128       35.5702   32.8910    4.7769 H         1 UNK         0.0771 
    129 H129       34.4503   34.1321    4.2173 H         1 UNK         0.0771 
    130 H130       34.9104   30.2440    4.8111 H         1 UNK         0.2980 
    131 H131       35.2806   28.3626    5.8877 H         1 UNK         0.0545 
    132 H132       36.0374   30.1340    9.2188 H         1 UNK         0.3459 
    133 H133       35.8135   30.8624    7.6462 H         1 UNK         0.3459 
    134 H134       32.3894   28.5362    6.8455 H         1 UNK         0.0616 
    135 H135       33.3344   27.0829    6.7275 H         1 UNK         0.0616 
    136 H136       34.0899   25.9289    4.8448 H         1 UNK         0.0634 
    137 H137       33.7934   26.2767    3.1641 H         1 UNK         0.0634 
@<TRIPOS>BOND
     1    1    2 1    
     2    1   72 1    
     3    1   73 1    
     4    1   74 1    
     5    2    3 2    
     6    2    4 am   BACKBONE|DICT|INTERRES
     7    4    5 1    
     8    4   75 1    
     9    5    6 1    
    10    5   35 1    
    11    5   76 1    
    12    6    7 1    
    13    6   77 1    
    14    6   78 1    
    15    7    8 1    
    16    8    9 1    
    17    8   79 1    
    18    8   80 1    
    19    9   10 ar   
    20    9   14 ar   
    21   10   11 ar   
    22   10   81 1    
    23   11   12 ar   
    24   11   71 1    
    25   12   13 ar   
    26   12   82 1    
    27   13   14 ar   
    28   13   15 1    
    29   14   83 1    
    30   15   16 1    
    31   15   84 1    
    32   15   85 1    
    33   16   17 1    
    34   17   18 1    
    35   17   86 1    
    36   17   87 1    
    37   18   19 1    
    38   18   37 1    
    39   18   88 1    
    40   19   20 am   BACKBONE|DICT|INTERRES
    41   19   89 1    
    42   20   21 2    
    43   20   22 1    
    44   22   23 1    
    45   22   24 1    
    46   22   90 1    
    47   23   91 1    
    48   23   92 1    
    49   23   93 1    
    50   24   25 am   BACKBONE|DICT|INTERRES
    51   24   94 1    
    52   25   26 2    
    53   25   27 1    
    54   27   28 1    
    55   27   29 1    
    56   27   95 1    
    57   28   96 1    
    58   28   97 1    
    59   28   98 1    
    60   29   30 am   BACKBONE|DICT|INTERRES
    61   29   99 1    
    62   30   31 2    
    63   30   32 1    
    64   32   33 1    
    65   32   34 1    
    66   32  100 1    
    67   33  101 1    
    68   33  102 1    
    69   33  103 1    
    70   34   35 am   BACKBONE|DICT|INTERRES
    71   34  104 1    
    72   35   36 2    
    73   37   38 2    
    74   37   39 am   BACKBONE|DICT|INTERRES
    75   39   40 1    
    76   39  105 1    
    77   40   41 1    
    78   40   42 1    
    79   40  106 1    
    80   41  107 1    
    81   41  108 1    
    82   41  109 1    
    83   42   43 2    
    84   42   44 am   BACKBONE|DICT|INTERRES
    85   44   45 1    
    86   44  110 1    
    87   45   46 1    
    88   45   47 1    
    89   45  111 1    
    90   46  112 1    
    91   46  113 1    
    92   46  114 1    
    93   47   48 2    
    94   47   49 am   BACKBONE|DICT|INTERRES
    95   49   50 1    
    96   49  115 1    
    97   50   51 1    
    98   50   52 1    
    99   50  116 1    
   100   51  117 1    
   101   51  118 1    
   102   51  119 1    
   103   52   53 2    
   104   52   54 am   BACKBONE|DICT|INTERRES
   105   54   55 1    
   106   54  120 1    
   107   55   56 1    
   108   55   57 1    
   109   55  121 1    
   110   56  122 1    
   111   56  123 1    
   112   56  124 1    
   113   57   58 2    
   114   57   59 am   BACKBONE|DICT|INTERRES
   115   59   60 1    
   116   59  125 1    
   117   60   61 1    
   118   60   62 1    
   119   60  126 1    
   120   61  127 1    
   121   61  128 1    
   122   61  129 1    
   123   62   63 2    
   124   62   64 am   BACKBONE|DICT|INTERRES
   125   64   65 1    
   126   64  130 1    
   127   65   66 1    
   128   65   69 1    
   129   65  131 1    
   130   66   67 am   BACKBONE|DICT|INTERRES
   131   66   68 2    
   132   67  132 1    
   133   67  133 1    
   134   69   70 1    
   135   69  134 1    
   136   69  135 1    
   137   70   71 1    
   138   71  136 1    
   139   71  137 1    
@<TRIPOS>SUBSTRUCTURE
     1 UNK         1 GROUP             0       ****    0 ROOT    
