@<TRIPOS>MOLECULE
3R136
137   139    1
SMALL
USER_CHARGES


@<TRIPOS>ATOM
      1 CA         26.1603   22.9668    4.8799 C.3       0 UNK        -0.1979 
      2 C          26.6538   23.1650    3.4553 C.2       0 UNK         0.4864 
      3 O          25.9945   23.8465    2.6696 O.2       0 UNK        -0.5359 
      4 N          27.8154   22.5887    3.1157 N.am      1 UNK        -0.4318 
      5 CA         28.4399   22.6804    1.7896 C.3       1 UNK         0.0824 
      6 C6         29.6447   21.7178    1.6424 C.3       12 UNK        -0.0944 
      7 S7         30.9953   21.9997    2.8455 S.3       12 UNK        -0.2672 
      8 C8         32.4524   22.1518    1.7619 C.3       12 UNK         0.0333 
      9 C9         32.6275   23.5581    1.2019 C.ar      12 UNK        -0.0807 
     10 C10        33.4670   24.4718    1.8477 C.ar      12 UNK        -0.0894 
     11 C11        33.6886   25.7412    1.3037 C.ar      12 UNK        -0.0804 
     12 C12        33.0428   26.1061    0.1191 C.ar      12 UNK        -0.0824 
     13 C13        32.1881   25.2083   -0.5271 C.ar      12 UNK        -0.0762 
     14 C14        31.9943   23.9332    0.0130 C.ar      12 UNK        -0.0782 
     15 C15        31.4851   25.6064   -1.8159 C.3       12 UNK         0.0230 
     16 S16        30.2210   26.8762   -1.5100 S.3       12 UNK        -0.2608 
     17 C17        29.1956   26.7331   -3.0093 C.3       12 UNK        -0.0989 
     18 CA         27.7333   27.2143   -2.8245 C.3       5 UNK         0.0716 
     19 N          27.0017   26.4297   -1.8167 N.am      5 UNK        -0.4135 
     20 C          25.6962   26.1304   -1.9046 C.2       4 UNK         0.5031 
     21 O          24.9917   26.4310   -2.8693 O.2       4 UNK        -0.5229 
     22 CA         25.0442   25.4020   -0.7142 C.3       4 UNK         0.0329 
     23 CB         25.2640   23.8838   -0.8090 C.3       4 UNK        -0.2001 
     24 N          25.4867   25.8921    0.5940 N.am      4 UNK        -0.4303 
     25 C          25.2954   27.1403    1.0473 C.2       3 UNK         0.5044 
     26 O          24.7146   28.0196    0.4113 O.2       3 UNK        -0.5152 
     27 CA         25.8937   27.4862    2.4216 C.3       3 UNK         0.0319 
     28 CB         24.9349   27.0967    3.5578 C.3       3 UNK        -0.2001 
     29 N          27.2022   26.8661    2.6373 N.am      3 UNK        -0.4354 
     30 C          28.2951   27.1571    1.9165 C.2       2 UNK         0.4964 
     31 O          28.3087   27.9877    1.0121 O.2       2 UNK        -0.5047 
     32 CA         29.5623   26.3432    2.2170 C.3       2 UNK         0.0288 
     33 CB         30.2605   26.8624    3.4835 C.3       2 UNK        -0.2113 
     34 N          29.2789   24.9156    2.3592 N.am      2 UNK        -0.4145 
     35 C          28.7865   24.1294    1.3890 C.2       1 UNK         0.5006 
     36 O          28.5514   24.5104    0.2415 O.2       1 UNK        -0.5103 
     37 C          27.6378   28.7425   -2.5959 C.2       5 UNK         0.5055 
     38 O          28.1599   29.4978   -3.4183 O.2       5 UNK        -0.5220 
     39 N          26.9744   29.1724   -1.5109 N.am      6 UNK        -0.4450 
     40 CA         26.7969   30.5570   -1.0561 C.3       6 UNK         0.0367 
     41 CB         25.9740   31.3806   -2.0701 C.3       6 UNK        -0.1929 
     42 C          28.1170   31.2409   -0.6427 C.2       6 UNK         0.5070 
     43 O          28.2796   32.4460   -0.8459 O.2       6 UNK        -0.5237 
     44 N          29.0252   30.4652   -0.0419 N.am      7 UNK        -0.4739 
     45 CA         30.2250   30.9424    0.6417 C.3       7 UNK         0.0276 
     46 CB         31.3142   29.8598    0.5338 C.3       7 UNK        -0.1927 
     47 C          29.9029   31.2360    2.1170 C.2       7 UNK         0.5013 
     48 O          28.8683   30.7992    2.6301 O.2       7 UNK        -0.5193 
     49 N          30.8084   31.9555    2.7905 N.am      8 UNK        -0.4253 
     50 CA         30.7544   32.1695    4.2370 C.3       8 UNK         0.0242 
     51 CB         31.7078   33.3128    4.6230 C.3       8 UNK        -0.2000 
     52 C          31.1389   30.8755    4.9693 C.2       8 UNK         0.4948 
     53 O          32.1781   30.2959    4.6513 O.2       8 UNK        -0.5275 
     54 N          30.3309   30.4701    5.9599 N.am      9 UNK        -0.4246 
     55 CA         30.4934   29.2309    6.7379 C.3       9 UNK         0.0261 
     56 CB         29.3207   29.0924    7.7217 C.3       9 UNK        -0.1959 
     57 C          31.8391   29.0954    7.4772 C.2       9 UNK         0.5033 
     58 O          32.2547   27.9753    7.7793 O.2       9 UNK        -0.5390 
     59 N          32.5160   30.2285    7.7093 N.am      10 UNK        -0.4215 
     60 CA         33.8771   30.3294    8.2365 C.3       10 UNK         0.0240 
     61 CB         34.2312   31.8150    8.4174 C.3       10 UNK        -0.1982 
     62 C          34.9498   29.6215    7.3837 C.2       10 UNK         0.4970 
     63 O          36.0166   29.3235    7.9231 O.2       10 UNK        -0.4916 
     64 N          34.6705   29.3508    6.0973 N.am      11 UNK        -0.4279 
     65 CA         35.5411   28.5399    5.2312 C.3       11 UNK         0.1003 
     66 C          35.6117   27.0273    5.6068 C.2       11 UNK         0.5709 
     67 N          34.7167   26.5018    6.4379 N.am      11 UNK        -0.7358 
     68 O          36.5085   26.3243    5.1471 O.2       11 UNK        -0.4999 
     69 C69        35.2640   28.7914    3.7217 C.3       12 UNK        -0.0954 
     70 S70        33.8187   27.9135    3.0234 S.3       12 UNK        -0.2268 
     71 C71        34.6636   26.7001    1.9670 C.3       12 UNK         0.0203 
     72 H72        25.1918   22.4678    4.8731 H         1 UNK         0.0888 
     73 H73        26.8496   22.3636    5.4704 H         1 UNK         0.0888 
     74 H74        26.0431   23.9311    5.3735 H         1 UNK         0.0888 
     75 H75        28.3244   22.0451    3.7989 H         1 UNK         0.3017 
     76 H76        27.6828   22.3478    1.0758 H         1 UNK         0.0873 
     77 H77        30.0300   21.7519    0.6232 H         1 UNK         0.0745 
     78 H78        29.3000   20.6914    1.7775 H         1 UNK         0.0745 
     79 H79        32.3915   21.4241    0.9511 H         1 UNK         0.0705 
     80 H80        33.3365   21.8764    2.3389 H         1 UNK         0.0705 
     81 H81        33.9690   24.1863    2.7623 H         1 UNK         0.1334 
     82 H82        33.2043   27.0896   -0.3013 H         1 UNK         0.1417 
     83 H83        31.3489   23.2329   -0.4974 H         1 UNK         0.1562 
     84 H84        31.0215   24.7324   -2.2755 H         1 UNK         0.0748 
     85 H85        32.2136   25.9864   -2.5334 H         1 UNK         0.0748 
     86 H86        29.1817   25.6909   -3.3313 H         1 UNK         0.0940 
     87 H87        29.6840   27.2823   -3.8166 H         1 UNK         0.0940 
     88 H88        27.2499   27.0489   -3.7898 H         1 UNK         0.0703 
     89 H89        27.5349   26.1212   -1.0101 H         1 UNK         0.3081 
     90 H90        23.9691   25.5844   -0.7730 H         1 UNK         0.0719 
     91 H91        24.8569   23.4904   -1.7413 H         1 UNK         0.0809 
     92 H92        26.3214   23.6230   -0.7829 H         1 UNK         0.0809 
     93 H93        24.7694   23.3586    0.0084 H         1 UNK         0.0809 
     94 H94        25.9249   25.2169    1.2144 H         1 UNK         0.2990 
     95 H95        26.0345   28.5690    2.4554 H         1 UNK         0.0690 
     96 H96        25.3266   27.3994    4.5290 H         1 UNK         0.0788 
     97 H97        24.7533   26.0222    3.5881 H         1 UNK         0.0788 
     98 H98        23.9677   27.5855    3.4329 H         1 UNK         0.0788 
     99 H99        27.2536   26.1317    3.3272 H         1 UNK         0.2993 
    100 H100       30.2480   26.4639    1.3770 H         1 UNK         0.0949 
    101 H101       30.4949   27.9245    3.3911 H         1 UNK         0.0767 
    102 H102       29.6388   26.7389    4.3706 H         1 UNK         0.0767 
    103 H103       31.2020   26.3401    3.6557 H         1 UNK         0.0767 
    104 H104       29.4621   24.4975    3.2593 H         1 UNK         0.3013 
    105 H105       26.5984   28.4701   -0.8870 H         1 UNK         0.3121 
    106 H106       26.2060   30.4887   -0.1414 H         1 UNK         0.0774 
    107 H107       25.0421   30.8769   -2.3264 H         1 UNK         0.0815 
    108 H108       25.7112   32.3555   -1.6580 H         1 UNK         0.0815 
    109 H109       26.5263   31.5586   -2.9931 H         1 UNK         0.0815 
    110 H110       28.7606   29.5043    0.1760 H         1 UNK         0.2987 
    111 H111       30.5831   31.8592    0.1683 H         1 UNK         0.0949 
    112 H112       31.5468   29.6347   -0.5070 H         1 UNK         0.0806 
    113 H113       32.2415   30.1775    1.0122 H         1 UNK         0.0806 
    114 H114       31.0071   28.9292    1.0129 H         1 UNK         0.0806 
    115 H115       31.6556   32.2424    2.3222 H         1 UNK         0.3010 
    116 H116       29.7374   32.4574    4.5129 H         1 UNK         0.0829 
    117 H117       32.7438   33.0781    4.3740 H         1 UNK         0.0813 
    118 H118       31.4422   34.2398    4.1144 H         1 UNK         0.0813 
    119 H119       31.6676   33.5098    5.6951 H         1 UNK         0.0813 
    120 H120       29.5040   31.0153    6.1590 H         1 UNK         0.3038 
    121 H121       30.4435   28.4013    6.0308 H         1 UNK         0.0769 
    122 H122       29.3990   28.1676    8.2953 H         1 UNK         0.0811 
    123 H123       28.3641   29.0652    7.1994 H         1 UNK         0.0811 
    124 H124       29.2928   29.9168    8.4354 H         1 UNK         0.0811 
    125 H125       32.0843   31.0916    7.4150 H         1 UNK         0.3204 
    126 H126       33.8818   29.8518    9.2184 H         1 UNK         0.0748 
    127 H127       35.2302   31.9305    8.8408 H         1 UNK         0.0771 
    128 H128       34.2160   32.3515    7.4676 H         1 UNK         0.0771 
    129 H129       33.5364   32.3104    9.0959 H         1 UNK         0.0771 
    130 H130       33.7772   29.6259    5.6995 H         1 UNK         0.2980 
    131 H131       36.5528   28.9124    5.4037 H         1 UNK         0.0545 
    132 H132       33.9686   27.0666    6.8208 H         1 UNK         0.3459 
    133 H133       34.7808   25.5254    6.6759 H         1 UNK         0.3459 
    134 H134       35.1231   29.8586    3.5439 H         1 UNK         0.0616 
    135 H135       36.1510   28.5228    3.1458 H         1 UNK         0.0616 
    136 H136       35.2366   27.2279    1.2031 H         1 UNK         0.0634 
    137 H137       35.3873   26.1434    2.5642 H         1 UNK         0.0634 
@<TRIPOS>BOND
     1    1    2 1    
     2    1   72 1    
     3    1   73 1    
     4    1   74 1    
     5    2    3 2    
     6    2    4 am   BACKBONE|DICT|INTERRES
     7    4    5 1    
     8    4   75 1    
     9    5    6 1    
    10    5   35 1    
    11    5   76 1    
    12    6    7 1    
    13    6   77 1    
    14    6   78 1    
    15    7    8 1    
    16    8    9 1    
    17    8   79 1    
    18    8   80 1    
    19    9   10 ar   
    20    9   14 ar   
    21   10   11 ar   
    22   10   81 1    
    23   11   12 ar   
    24   11   71 1    
    25   12   13 ar   
    26   12   82 1    
    27   13   14 ar   
    28   13   15 1    
    29   14   83 1    
    30   15   16 1    
    31   15   84 1    
    32   15   85 1    
    33   16   17 1    
    34   17   18 1    
    35   17   86 1    
    36   17   87 1    
    37   18   19 1    
    38   18   37 1    
    39   18   88 1    
    40   19   20 am   BACKBONE|DICT|INTERRES
    41   19   89 1    
    42   20   21 2    
    43   20   22 1    
    44   22   23 1    
    45   22   24 1    
    46   22   90 1    
    47   23   91 1    
    48   23   92 1    
    49   23   93 1    
    50   24   25 am   BACKBONE|DICT|INTERRES
    51   24   94 1    
    52   25   26 2    
    53   25   27 1    
    54   27   28 1    
    55   27   29 1    
    56   27   95 1    
    57   28   96 1    
    58   28   97 1    
    59   28   98 1    
    60   29   30 am   BACKBONE|DICT|INTERRES
    61   29   99 1    
    62   30   31 2    
    63   30   32 1    
    64   32   33 1    
    65   32   34 1    
    66   32  100 1    
    67   33  101 1    
    68   33  102 1    
    69   33  103 1    
    70   34   35 am   BACKBONE|DICT|INTERRES
    71   34  104 1    
    72   35   36 2    
    73   37   38 2    
    74   37   39 am   BACKBONE|DICT|INTERRES
    75   39   40 1    
    76   39  105 1    
    77   40   41 1    
    78   40   42 1    
    79   40  106 1    
    80   41  107 1    
    81   41  108 1    
    82   41  109 1    
    83   42   43 2    
    84   42   44 am   BACKBONE|DICT|INTERRES
    85   44   45 1    
    86   44  110 1    
    87   45   46 1    
    88   45   47 1    
    89   45  111 1    
    90   46  112 1    
    91   46  113 1    
    92   46  114 1    
    93   47   48 2    
    94   47   49 am   BACKBONE|DICT|INTERRES
    95   49   50 1    
    96   49  115 1    
    97   50   51 1    
    98   50   52 1    
    99   50  116 1    
   100   51  117 1    
   101   51  118 1    
   102   51  119 1    
   103   52   53 2    
   104   52   54 am   BACKBONE|DICT|INTERRES
   105   54   55 1    
   106   54  120 1    
   107   55   56 1    
   108   55   57 1    
   109   55  121 1    
   110   56  122 1    
   111   56  123 1    
   112   56  124 1    
   113   57   58 2    
   114   57   59 am   BACKBONE|DICT|INTERRES
   115   59   60 1    
   116   59  125 1    
   117   60   61 1    
   118   60   62 1    
   119   60  126 1    
   120   61  127 1    
   121   61  128 1    
   122   61  129 1    
   123   62   63 2    
   124   62   64 am   BACKBONE|DICT|INTERRES
   125   64   65 1    
   126   64  130 1    
   127   65   66 1    
   128   65   69 1    
   129   65  131 1    
   130   66   67 am   BACKBONE|DICT|INTERRES
   131   66   68 2    
   132   67  132 1    
   133   67  133 1    
   134   69   70 1    
   135   69  134 1    
   136   69  135 1    
   137   70   71 1    
   138   71  136 1    
   139   71  137 1    
@<TRIPOS>SUBSTRUCTURE
     1 UNK         1 GROUP             0       ****    0 ROOT    
