@<TRIPOS>MOLECULE
3R136
137   139    1
SMALL
USER_CHARGES


@<TRIPOS>ATOM
      1 CA         28.4923   23.2443   -2.4549 C.3       0 UNK        -0.1979 
      2 C          28.2284   23.7351   -1.0406 C.2       0 UNK         0.4864 
      3 O          27.5683   24.7623   -0.8694 O.2       0 UNK        -0.5359 
      4 N          28.7420   23.0187   -0.0310 N.am      1 UNK        -0.4318 
      5 CA         28.6352   23.3359    1.3987 C.3       1 UNK         0.0824 
      6 C6         29.4342   22.3195    2.2583 C.3       12 UNK        -0.0944 
      7 S7         30.1189   23.0716    3.7726 S.3       12 UNK        -0.2672 
      8 C8         31.9078   23.1089    3.4218 C.3       12 UNK         0.0333 
      9 C9         32.3112   24.3226    2.5945 C.ar      12 UNK        -0.0807 
     10 C10        32.8703   25.4437    3.2176 C.ar      12 UNK        -0.0894 
     11 C11        33.2691   26.5507    2.4619 C.ar      12 UNK        -0.0804 
     12 C12        33.1218   26.5247    1.0735 C.ar      12 UNK        -0.0824 
     13 C13        32.5030   25.4398    0.4464 C.ar      12 UNK        -0.0762 
     14 C14        32.1288   24.3287    1.2080 C.ar      12 UNK        -0.0782 
     15 C15        32.1608   25.5044   -1.0387 C.3       12 UNK         0.0230 
     16 S16        31.1005   26.9376   -1.4671 S.3       12 UNK        -0.2608 
     17 C17        30.0426   27.1047    0.0112 C.3       12 UNK        -0.0989 
     18 CA         28.8533   28.0673   -0.1810 C.3       5 UNK         0.0716 
     19 N          27.8804   27.5325   -1.1296 N.am      5 UNK        -0.4135 
     20 C          26.9975   28.2659   -1.8184 C.2       4 UNK         0.5031 
     21 O          26.9637   29.4972   -1.7962 O.2       4 UNK        -0.5229 
     22 CA         25.9671   27.5036   -2.6629 C.3       4 UNK         0.0329 
     23 CB         26.5664   27.0875   -4.0170 C.3       4 UNK        -0.2001 
     24 N          25.4839   26.3194   -1.9537 N.am      4 UNK        -0.4303 
     25 C          24.2073   25.9273   -1.8689 C.2       3 UNK         0.5044 
     26 O          23.2680   26.5054   -2.4170 O.2       3 UNK        -0.5152 
     27 CA         23.9300   24.6809   -1.0161 C.3       3 UNK         0.0319 
     28 CB         24.2112   23.4018   -1.8213 C.3       3 UNK        -0.2001 
     29 N          24.7533   24.6823    0.1946 N.am      3 UNK        -0.4354 
     30 C          24.3282   25.0358    1.4151 C.2       2 UNK         0.4964 
     31 O          23.1638   25.3560    1.6591 O.2       2 UNK        -0.5047 
     32 CA         25.3608   25.0697    2.5618 C.3       2 UNK         0.0288 
     33 CB         24.8735   24.2998    3.8084 C.3       2 UNK        -0.2113 
     34 N          26.7214   24.6687    2.1746 N.am      2 UNK        -0.4145 
     35 C          27.1610   23.4430    1.8462 C.2       1 UNK         0.5006 
     36 O          26.4548   22.4327    1.8324 O.2       1 UNK        -0.5103 
     37 C          28.1763   28.3147    1.1794 C.2       5 UNK         0.5055 
     38 O          27.2529   27.5850    1.5474 O.2       5 UNK        -0.5220 
     39 N          28.7001   29.2956    1.9266 N.am      6 UNK        -0.4450 
     40 CA         28.2119   29.7166    3.2448 C.3       6 UNK         0.0367 
     41 CB         28.9190   31.0251    3.6382 C.3       6 UNK        -0.1929 
     42 C          28.3707   28.6764    4.3721 C.2       6 UNK         0.5070 
     43 O          27.7044   28.8188    5.3975 O.2       6 UNK        -0.5237 
     44 N          29.2493   27.6787    4.1806 N.am      7 UNK        -0.4739 
     45 CA         29.6067   26.6197    5.1387 C.3       7 UNK         0.0276 
     46 CB         28.3948   25.7137    5.4468 C.3       7 UNK        -0.1927 
     47 C          30.2843   27.1666    6.4125 C.2       7 UNK         0.5013 
     48 O          30.0262   26.6775    7.5143 O.2       7 UNK        -0.5193 
     49 N          31.1360   28.1804    6.2260 N.am      8 UNK        -0.4253 
     50 CA         31.9195   28.8502    7.2589 C.3       8 UNK         0.0242 
     51 CB         31.5186   30.3414    7.2886 C.3       8 UNK        -0.2000 
     52 C          33.4078   28.5961    6.9650 C.2       8 UNK         0.4948 
     53 O          33.8199   27.4352    6.9313 O.2       8 UNK        -0.5275 
     54 N          34.1783   29.6665    6.7398 N.am      9 UNK        -0.4246 
     55 CA         35.5788   29.6275    6.3179 C.3       9 UNK         0.0261 
     56 CB         36.5065   29.9607    7.5003 C.3       9 UNK        -0.1959 
     57 C          35.7760   30.5871    5.1400 C.2       9 UNK         0.5033 
     58 O          36.1265   30.1439    4.0456 O.2       9 UNK        -0.5390 
     59 N          35.4888   31.8789    5.3569 N.am      10 UNK        -0.4215 
     60 CA         35.4995   32.9269    4.3314 C.3       10 UNK         0.0240 
     61 CB         35.7281   34.2899    5.0124 C.3       10 UNK        -0.1982 
     62 C          34.2095   32.8920    3.4871 C.2       10 UNK         0.4970 
     63 O          33.4307   33.8468    3.5046 O.2       10 UNK        -0.4916 
     64 N          33.9925   31.7692    2.7939 N.am      11 UNK        -0.4279 
     65 CA         32.7950   31.4866    1.9858 C.3       11 UNK         0.1003 
     66 C          32.7153   32.2557    0.6353 C.2       11 UNK         0.5709 
     67 N          33.7697   32.9241    0.1832 N.am      11 UNK        -0.7358 
     68 O          31.6698   32.2491   -0.0100 O.2       11 UNK        -0.4999 
     69 C69        32.6011   29.9634    1.7679 C.3       12 UNK        -0.0954 
     70 S70        32.4997   29.0452    3.3417 S.3       12 UNK        -0.2268 
     71 C71        33.8104   27.7938    3.1483 C.3       12 UNK         0.0203 
     72 H72        29.0728   22.3222   -2.4659 H         1 UNK         0.0888 
     73 H73        27.5520   23.0603   -2.9729 H         1 UNK         0.0888 
     74 H74        29.0451   24.0004   -3.0120 H         1 UNK         0.0888 
     75 H75        29.2282   22.1606   -0.2471 H         1 UNK         0.3017 
     76 H76        29.0982   24.3152    1.5240 H         1 UNK         0.0873 
     77 H77        30.2595   21.8962    1.6854 H         1 UNK         0.0745 
     78 H78        28.8247   21.4585    2.5398 H         1 UNK         0.0745 
     79 H79        32.2152   22.1901    2.9205 H         1 UNK         0.0705 
     80 H80        32.4406   23.1181    4.3739 H         1 UNK         0.0705 
     81 H81        32.9889   25.4593    4.2929 H         1 UNK         0.1334 
     82 H82        33.4109   27.3826    0.4835 H         1 UNK         0.1417 
     83 H83        31.6716   23.4783    0.7235 H         1 UNK         0.1562 
     84 H84        31.6471   24.5947   -1.3533 H         1 UNK         0.0748 
     85 H85        33.0820   25.5548   -1.6205 H         1 UNK         0.0748 
     86 H86        30.6715   27.4622    0.8269 H         1 UNK         0.0940 
     87 H87        29.6938   26.1157    0.3048 H         1 UNK         0.0940 
     88 H88        29.2303   29.0203   -0.5596 H         1 UNK         0.0703 
     89 H89        27.8236   26.5185   -1.1608 H         1 UNK         0.3081 
     90 H90        25.1367   28.1886   -2.8476 H         1 UNK         0.0719 
     91 H91        26.9464   27.9544   -4.5592 H         1 UNK         0.0809 
     92 H92        27.3944   26.3879   -3.8944 H         1 UNK         0.0809 
     93 H93        25.8174   26.6114   -4.6500 H         1 UNK         0.0809 
     94 H94        26.1871   25.7641   -1.4736 H         1 UNK         0.2990 
     95 H95        22.8702   24.6841   -0.7524 H         1 UNK         0.0690 
     96 H96        23.9824   22.5101   -1.2375 H         1 UNK         0.0788 
     97 H97        25.2535   23.3380   -2.1334 H         1 UNK         0.0788 
     98 H98        23.5977   23.3662   -2.7226 H         1 UNK         0.0788 
     99 H99        25.7365   24.4699    0.0760 H         1 UNK         0.2993 
    100 H100       25.4396   26.1199    2.8469 H         1 UNK         0.0949 
    101 H101       25.6026   24.3484    4.6170 H         1 UNK         0.0767 
    102 H102       23.9432   24.7236    4.1885 H         1 UNK         0.0767 
    103 H103       24.6813   23.2491    3.5905 H         1 UNK         0.0767 
    104 H104       27.3513   25.4550    2.0633 H         1 UNK         0.3013 
    105 H105       29.4610   29.8375    1.5443 H         1 UNK         0.3121 
    106 H106       27.1433   29.9204    3.1480 H         1 UNK         0.0774 
    107 H107       28.5327   31.4079    4.5840 H         1 UNK         0.0815 
    108 H108       29.9925   30.8816    3.7639 H         1 UNK         0.0815 
    109 H109       28.7663   31.8040    2.8910 H         1 UNK         0.0815 
    110 H110       29.7627   27.6752    3.3114 H         1 UNK         0.2987 
    111 H111       30.3571   26.0019    4.6443 H         1 UNK         0.0949 
    112 H112       28.6942   24.8531    6.0460 H         1 UNK         0.0806 
    113 H113       27.9499   25.3267    4.5327 H         1 UNK         0.0806 
    114 H114       27.6187   26.2402    6.0022 H         1 UNK         0.0806 
    115 H115       31.3215   28.4728    5.2752 H         1 UNK         0.3010 
    116 H116       31.7130   28.4197    8.2410 H         1 UNK         0.0829 
    117 H117       31.6944   30.8366    6.3323 H         1 UNK         0.0813 
    118 H118       30.4577   30.4493    7.5165 H         1 UNK         0.0813 
    119 H119       32.0623   30.8861    8.0618 H         1 UNK         0.0813 
    120 H120       33.7327   30.5722    6.7511 H         1 UNK         0.3038 
    121 H121       35.8340   28.6283    5.9577 H         1 UNK         0.0769 
    122 H122       37.5500   29.9847    7.1832 H         1 UNK         0.0811 
    123 H123       36.4249   29.2071    8.2838 H         1 UNK         0.0811 
    124 H124       36.2762   30.9281    7.9473 H         1 UNK         0.0811 
    125 H125       35.2172   32.1706    6.2841 H         1 UNK         0.3204 
    126 H126       36.3371   32.7529    3.6522 H         1 UNK         0.0748 
    127 H127       35.7690   35.0929    4.2750 H         1 UNK         0.0771 
    128 H128       34.9298   34.5325    5.7151 H         1 UNK         0.0771 
    129 H129       36.6719   34.3068    5.5580 H         1 UNK         0.0771 
    130 H130       34.6738   31.0223    2.8729 H         1 UNK         0.2980 
    131 H131       31.9377   31.8377    2.5629 H         1 UNK         0.0545 
    132 H132       34.6308   32.9352    0.7051 H         1 UNK         0.3459 
    133 H133       33.7010   33.4209   -0.6909 H         1 UNK         0.3459 
    134 H134       31.6850   29.7639    1.2103 H         1 UNK         0.0616 
    135 H135       33.4176   29.5735    1.1595 H         1 UNK         0.0616 
    136 H136       34.1973   27.5374    4.1351 H         1 UNK         0.0634 
    137 H137       34.6541   28.2042    2.5920 H         1 UNK         0.0634 
@<TRIPOS>BOND
     1    1    2 1    
     2    1   72 1    
     3    1   73 1    
     4    1   74 1    
     5    2    3 2    
     6    2    4 am   BACKBONE|DICT|INTERRES
     7    4    5 1    
     8    4   75 1    
     9    5    6 1    
    10    5   35 1    
    11    5   76 1    
    12    6    7 1    
    13    6   77 1    
    14    6   78 1    
    15    7    8 1    
    16    8    9 1    
    17    8   79 1    
    18    8   80 1    
    19    9   10 ar   
    20    9   14 ar   
    21   10   11 ar   
    22   10   81 1    
    23   11   12 ar   
    24   11   71 1    
    25   12   13 ar   
    26   12   82 1    
    27   13   14 ar   
    28   13   15 1    
    29   14   83 1    
    30   15   16 1    
    31   15   84 1    
    32   15   85 1    
    33   16   17 1    
    34   17   18 1    
    35   17   86 1    
    36   17   87 1    
    37   18   19 1    
    38   18   37 1    
    39   18   88 1    
    40   19   20 am   BACKBONE|DICT|INTERRES
    41   19   89 1    
    42   20   21 2    
    43   20   22 1    
    44   22   23 1    
    45   22   24 1    
    46   22   90 1    
    47   23   91 1    
    48   23   92 1    
    49   23   93 1    
    50   24   25 am   BACKBONE|DICT|INTERRES
    51   24   94 1    
    52   25   26 2    
    53   25   27 1    
    54   27   28 1    
    55   27   29 1    
    56   27   95 1    
    57   28   96 1    
    58   28   97 1    
    59   28   98 1    
    60   29   30 am   BACKBONE|DICT|INTERRES
    61   29   99 1    
    62   30   31 2    
    63   30   32 1    
    64   32   33 1    
    65   32   34 1    
    66   32  100 1    
    67   33  101 1    
    68   33  102 1    
    69   33  103 1    
    70   34   35 am   BACKBONE|DICT|INTERRES
    71   34  104 1    
    72   35   36 2    
    73   37   38 2    
    74   37   39 am   BACKBONE|DICT|INTERRES
    75   39   40 1    
    76   39  105 1    
    77   40   41 1    
    78   40   42 1    
    79   40  106 1    
    80   41  107 1    
    81   41  108 1    
    82   41  109 1    
    83   42   43 2    
    84   42   44 am   BACKBONE|DICT|INTERRES
    85   44   45 1    
    86   44  110 1    
    87   45   46 1    
    88   45   47 1    
    89   45  111 1    
    90   46  112 1    
    91   46  113 1    
    92   46  114 1    
    93   47   48 2    
    94   47   49 am   BACKBONE|DICT|INTERRES
    95   49   50 1    
    96   49  115 1    
    97   50   51 1    
    98   50   52 1    
    99   50  116 1    
   100   51  117 1    
   101   51  118 1    
   102   51  119 1    
   103   52   53 2    
   104   52   54 am   BACKBONE|DICT|INTERRES
   105   54   55 1    
   106   54  120 1    
   107   55   56 1    
   108   55   57 1    
   109   55  121 1    
   110   56  122 1    
   111   56  123 1    
   112   56  124 1    
   113   57   58 2    
   114   57   59 am   BACKBONE|DICT|INTERRES
   115   59   60 1    
   116   59  125 1    
   117   60   61 1    
   118   60   62 1    
   119   60  126 1    
   120   61  127 1    
   121   61  128 1    
   122   61  129 1    
   123   62   63 2    
   124   62   64 am   BACKBONE|DICT|INTERRES
   125   64   65 1    
   126   64  130 1    
   127   65   66 1    
   128   65   69 1    
   129   65  131 1    
   130   66   67 am   BACKBONE|DICT|INTERRES
   131   66   68 2    
   132   67  132 1    
   133   67  133 1    
   134   69   70 1    
   135   69  134 1    
   136   69  135 1    
   137   70   71 1    
   138   71  136 1    
   139   71  137 1    
@<TRIPOS>SUBSTRUCTURE
     1 UNK         1 GROUP             0       ****    0 ROOT    
