@<TRIPOS>MOLECULE
3R136
137   139    1
SMALL
USER_CHARGES


@<TRIPOS>ATOM
      1 CA         27.9246   21.5060    0.9076 C.3       0 UNK        -0.1979 
      2 C          28.3584   22.2355   -0.3554 C.2       0 UNK         0.4864 
      3 O          27.8336   21.9584   -1.4349 O.2       0 UNK        -0.5359 
      4 N          29.3158   23.1606   -0.2265 N.am      1 UNK        -0.4318 
      5 CA         29.7817   24.0402   -1.3008 C.3       1 UNK         0.0824 
      6 C6         31.1729   24.6359   -0.9730 C.3       12 UNK        -0.0944 
      7 S7         32.5458   23.4495   -1.1700 S.3       12 UNK        -0.2672 
      8 C8         32.4633   22.4009    0.3252 C.3       12 UNK         0.0333 
      9 C9         32.3223   23.1619    1.6413 C.ar      12 UNK        -0.0807 
     10 C10        33.0811   24.3072    1.9064 C.ar      12 UNK        -0.0894 
     11 C11        32.9489   24.9905    3.1196 C.ar      12 UNK        -0.0804 
     12 C12        32.0651   24.4980    4.0880 C.ar      12 UNK        -0.0824 
     13 C13        31.3085   23.3490    3.8405 C.ar      12 UNK        -0.0762 
     14 C14        31.4419   22.6873    2.6174 C.ar      12 UNK        -0.0782 
     15 C15        30.3652   22.7959    4.8979 C.3       12 UNK         0.0230 
     16 S16        28.6432   23.3030    4.5975 S.3       12 UNK        -0.2608 
     17 C17        28.6142   24.9925    5.2880 C.3       12 UNK        -0.0989 
     18 CA         28.4716   26.0889    4.2043 C.3       5 UNK         0.0716 
     19 N          27.2688   25.8983    3.3860 N.am      5 UNK        -0.4135 
     20 C          26.9012   26.6731    2.3572 C.2       4 UNK         0.5031 
     21 O          27.5949   27.5834    1.8918 O.2       4 UNK        -0.5229 
     22 CA         25.4866   26.4334    1.8156 C.3       4 UNK         0.0329 
     23 CB         24.4494   27.0416    2.7856 C.3       4 UNK        -0.2001 
     24 N          25.3757   27.0418    0.4927 N.am      4 UNK        -0.4303 
     25 C          24.3351   26.9444   -0.3451 C.2       3 UNK         0.5044 
     26 O          23.3208   26.2857   -0.1117 O.2       3 UNK        -0.5152 
     27 CA         24.4318   27.7190   -1.6716 C.3       3 UNK         0.0319 
     28 CB         23.9499   29.1671   -1.4833 C.3       3 UNK        -0.2001 
     29 N          25.7883   27.7278   -2.2189 N.am      3 UNK        -0.4354 
     30 C          26.3796   26.6755   -2.8006 C.2       2 UNK         0.4964 
     31 O          25.8009   25.6148   -3.0452 O.2       2 UNK        -0.5047 
     32 CA         27.8680   26.8262   -3.1821 C.3       2 UNK         0.0288 
     33 CB         28.5153   28.1356   -2.6728 C.3       2 UNK        -0.2113 
     34 N          28.6739   25.6748   -2.7536 N.am      2 UNK        -0.4145 
     35 C          28.7680   25.1808   -1.5089 C.2       1 UNK         0.5006 
     36 O          28.1471   25.6212   -0.5396 O.2       1 UNK        -0.5103 
     37 C          28.4583   27.4829    4.8678 C.2       5 UNK         0.5055 
     38 O          27.3862   27.9838    5.2174 O.2       5 UNK        -0.5220 
     39 N          29.6425   28.0911    5.0053 N.am      6 UNK        -0.4450 
     40 CA         29.9115   29.4580    5.4770 C.3       6 UNK         0.0367 
     41 CB         29.3493   29.7278    6.8854 C.3       6 UNK        -0.1929 
     42 C          29.5024   30.5514    4.4762 C.2       6 UNK         0.5070 
     43 O          30.2785   31.4818    4.2600 O.2       6 UNK        -0.5237 
     44 N          28.3408   30.4013    3.8261 N.am      7 UNK        -0.4739 
     45 CA         27.9029   31.2421    2.7063 C.3       7 UNK         0.0276 
     46 CB         26.4452   30.9095    2.3474 C.3       7 UNK        -0.1927 
     47 C          28.8175   31.1129    1.4725 C.2       7 UNK         0.5013 
     48 O          28.9460   32.0764    0.7171 O.2       7 UNK        -0.5193 
     49 N          29.4441   29.9375    1.3119 N.am      8 UNK        -0.4253 
     50 CA         30.4389   29.6228    0.2888 C.3       8 UNK         0.0242 
     51 CB         30.8240   28.1353    0.3879 C.3       8 UNK        -0.2000 
     52 C          31.6850   30.5242    0.3403 C.2       8 UNK         0.4948 
     53 O          31.9703   31.2002   -0.6494 O.2       8 UNK        -0.5275 
     54 N          32.4128   30.5095    1.4679 N.am      9 UNK        -0.4246 
     55 CA         33.6957   31.2057    1.6189 C.3       9 UNK         0.0261 
     56 CB         34.7900   30.4995    0.7832 C.3       9 UNK        -0.1959 
     57 C          34.1030   31.3534    3.0952 C.2       9 UNK         0.5033 
     58 O          35.2538   31.0692    3.4352 O.2       9 UNK        -0.5390 
     59 N          33.1653   31.7672    3.9620 N.am      10 UNK        -0.4215 
     60 CA         33.2974   31.9840    5.4164 C.3       10 UNK         0.0240 
     61 CB         34.3819   33.0266    5.7546 C.3       10 UNK        -0.1982 
     62 C          33.4832   30.6919    6.2330 C.2       10 UNK         0.4970 
     63 O          32.8006   30.5195    7.2426 O.2       10 UNK        -0.4916 
     64 N          34.3585   29.7999    5.7576 N.am      11 UNK        -0.4279 
     65 CA         34.5372   28.4049    6.1928 C.3       11 UNK         0.1003 
     66 C          35.0310   28.2177    7.6599 C.2       11 UNK         0.5709 
     67 N          35.6040   29.2325    8.2959 N.am      11 UNK        -0.7358 
     68 O          34.9296   27.1293    8.2215 O.2       11 UNK        -0.4999 
     69 C69        33.3096   27.5132    5.8391 C.3       12 UNK        -0.0954 
     70 S70        32.8497   27.6252    4.0709 S.3       12 UNK        -0.2268 
     71 C71        33.7957   26.2347    3.3703 C.3       12 UNK         0.0203 
     72 H72        28.3937   21.9202    1.7995 H         1 UNK         0.0888 
     73 H73        26.8448   21.5818    1.0318 H         1 UNK         0.0888 
     74 H74        28.1879   20.4508    0.8419 H         1 UNK         0.0888 
     75 H75        29.6762   23.3797    0.6905 H         1 UNK         0.3017 
     76 H76        29.8482   23.4639   -2.2263 H         1 UNK         0.0873 
     77 H77        31.1858   25.0735    0.0262 H         1 UNK         0.0745 
     78 H78        31.4023   25.4614   -1.6503 H         1 UNK         0.0745 
     79 H79        33.3716   21.7991    0.3721 H         1 UNK         0.0705 
     80 H80        31.6422   21.6940    0.1996 H         1 UNK         0.0705 
     81 H81        33.7749   24.6692    1.1600 H         1 UNK         0.1334 
     82 H82        31.9684   25.0037    5.0377 H         1 UNK         0.1417 
     83 H83        30.8659   21.7901    2.4346 H         1 UNK         0.1562 
     84 H84        30.6787   23.0971    5.8987 H         1 UNK         0.0748 
     85 H85        30.4116   21.7059    4.8880 H         1 UNK         0.0748 
     86 H86        29.5160   25.1567    5.8807 H         1 UNK         0.0940 
     87 H87        27.7833   25.0460    5.9948 H         1 UNK         0.0940 
     88 H88        29.3309   26.0331    3.5319 H         1 UNK         0.0703 
     89 H89        26.6315   25.1871    3.7106 H         1 UNK         0.3081 
     90 H90        25.3261   25.3579    1.7187 H         1 UNK         0.0719 
     91 H91        24.5561   28.1248    2.8557 H         1 UNK         0.0809 
     92 H92        23.4269   26.8260    2.4771 H         1 UNK         0.0809 
     93 H93        24.5645   26.6403    3.7933 H         1 UNK         0.0809 
     94 H94        26.2083   27.5454    0.2113 H         1 UNK         0.2990 
     95 H95        23.7710   27.2322   -2.3924 H         1 UNK         0.0690 
     96 H96        23.9487   29.7112   -2.4279 H         1 UNK         0.0788 
     97 H97        24.5772   29.7157   -0.7792 H         1 UNK         0.0788 
     98 H98        22.9301   29.1901   -1.0964 H         1 UNK         0.0788 
     99 H99        26.3361   28.5628   -2.0713 H         1 UNK         0.2993 
    100 H100       27.9009   26.8393   -4.2727 H         1 UNK         0.0949 
    101 H101       28.4434   28.2240   -1.5883 H         1 UNK         0.0767 
    102 H102       29.5723   28.1799   -2.9363 H         1 UNK         0.0767 
    103 H103       28.0435   29.0141   -3.1150 H         1 UNK         0.0767 
    104 H104       29.2020   25.2226   -3.4869 H         1 UNK         0.3013 
    105 H105       30.4631   27.6034    4.6686 H         1 UNK         0.3121 
    106 H106       30.9948   29.5160    5.5520 H         1 UNK         0.0774 
    107 H107       29.7016   30.6900    7.2594 H         1 UNK         0.0815 
    108 H108       28.2597   29.7574    6.8984 H         1 UNK         0.0815 
    109 H109       29.6766   28.9675    7.5943 H         1 UNK         0.0815 
    110 H110       27.7576   29.6087    4.0767 H         1 UNK         0.2987 
    111 H111       27.9457   32.2827    3.0353 H         1 UNK         0.0949 
    112 H112       26.0845   31.5577    1.5475 H         1 UNK         0.0806 
    113 H113       26.3345   29.8811    2.0047 H         1 UNK         0.0806 
    114 H114       25.7833   31.0511    3.2018 H         1 UNK         0.0806 
    115 H115       29.1667   29.1795    1.9230 H         1 UNK         0.3010 
    116 H116       29.9650   29.7877   -0.6801 H         1 UNK         0.0829 
    117 H117       29.9521   27.4939    0.2622 H         1 UNK         0.0813 
    118 H118       31.5404   27.8644   -0.3887 H         1 UNK         0.0813 
    119 H119       31.2748   27.8885    1.3495 H         1 UNK         0.0813 
    120 H120       32.1146   29.9347    2.2440 H         1 UNK         0.3038 
    121 H121       33.5803   32.2226    1.2380 H         1 UNK         0.0769 
    122 H122       35.7479   31.0138    0.8713 H         1 UNK         0.0811 
    123 H123       34.5438   30.4789   -0.2781 H         1 UNK         0.0811 
    124 H124       34.9390   29.4702    1.1117 H         1 UNK         0.0811 
    125 H125       32.2193   31.9045    3.6185 H         1 UNK         0.3204 
    126 H126       32.3425   32.4082    5.7306 H         1 UNK         0.0748 
    127 H127       34.3766   33.2578    6.8206 H         1 UNK         0.0771 
    128 H128       35.3842   32.6764    5.5070 H         1 UNK         0.0771 
    129 H129       34.2120   33.9612    5.2201 H         1 UNK         0.0771 
    130 H130       34.8777   30.0751    4.9267 H         1 UNK         0.2980 
    131 H131       35.3696   28.0369    5.5926 H         1 UNK         0.0545 
    132 H132       35.9318   29.1035    9.2399 H         1 UNK         0.3459 
    133 H133       35.6951   30.1284    7.8447 H         1 UNK         0.3459 
    134 H134       32.4470   27.8011    6.4413 H         1 UNK         0.0616 
    135 H135       33.5095   26.4694    6.0853 H         1 UNK         0.0616 
    136 H136       34.6328   25.9776    4.0202 H         1 UNK         0.0634 
    137 H137       34.2357   26.5833    2.4347 H         1 UNK         0.0634 
@<TRIPOS>BOND
     1    1    2 1    
     2    1   72 1    
     3    1   73 1    
     4    1   74 1    
     5    2    3 2    
     6    2    4 am   BACKBONE|DICT|INTERRES
     7    4    5 1    
     8    4   75 1    
     9    5    6 1    
    10    5   35 1    
    11    5   76 1    
    12    6    7 1    
    13    6   77 1    
    14    6   78 1    
    15    7    8 1    
    16    8    9 1    
    17    8   79 1    
    18    8   80 1    
    19    9   10 ar   
    20    9   14 ar   
    21   10   11 ar   
    22   10   81 1    
    23   11   12 ar   
    24   11   71 1    
    25   12   13 ar   
    26   12   82 1    
    27   13   14 ar   
    28   13   15 1    
    29   14   83 1    
    30   15   16 1    
    31   15   84 1    
    32   15   85 1    
    33   16   17 1    
    34   17   18 1    
    35   17   86 1    
    36   17   87 1    
    37   18   19 1    
    38   18   37 1    
    39   18   88 1    
    40   19   20 am   BACKBONE|DICT|INTERRES
    41   19   89 1    
    42   20   21 2    
    43   20   22 1    
    44   22   23 1    
    45   22   24 1    
    46   22   90 1    
    47   23   91 1    
    48   23   92 1    
    49   23   93 1    
    50   24   25 am   BACKBONE|DICT|INTERRES
    51   24   94 1    
    52   25   26 2    
    53   25   27 1    
    54   27   28 1    
    55   27   29 1    
    56   27   95 1    
    57   28   96 1    
    58   28   97 1    
    59   28   98 1    
    60   29   30 am   BACKBONE|DICT|INTERRES
    61   29   99 1    
    62   30   31 2    
    63   30   32 1    
    64   32   33 1    
    65   32   34 1    
    66   32  100 1    
    67   33  101 1    
    68   33  102 1    
    69   33  103 1    
    70   34   35 am   BACKBONE|DICT|INTERRES
    71   34  104 1    
    72   35   36 2    
    73   37   38 2    
    74   37   39 am   BACKBONE|DICT|INTERRES
    75   39   40 1    
    76   39  105 1    
    77   40   41 1    
    78   40   42 1    
    79   40  106 1    
    80   41  107 1    
    81   41  108 1    
    82   41  109 1    
    83   42   43 2    
    84   42   44 am   BACKBONE|DICT|INTERRES
    85   44   45 1    
    86   44  110 1    
    87   45   46 1    
    88   45   47 1    
    89   45  111 1    
    90   46  112 1    
    91   46  113 1    
    92   46  114 1    
    93   47   48 2    
    94   47   49 am   BACKBONE|DICT|INTERRES
    95   49   50 1    
    96   49  115 1    
    97   50   51 1    
    98   50   52 1    
    99   50  116 1    
   100   51  117 1    
   101   51  118 1    
   102   51  119 1    
   103   52   53 2    
   104   52   54 am   BACKBONE|DICT|INTERRES
   105   54   55 1    
   106   54  120 1    
   107   55   56 1    
   108   55   57 1    
   109   55  121 1    
   110   56  122 1    
   111   56  123 1    
   112   56  124 1    
   113   57   58 2    
   114   57   59 am   BACKBONE|DICT|INTERRES
   115   59   60 1    
   116   59  125 1    
   117   60   61 1    
   118   60   62 1    
   119   60  126 1    
   120   61  127 1    
   121   61  128 1    
   122   61  129 1    
   123   62   63 2    
   124   62   64 am   BACKBONE|DICT|INTERRES
   125   64   65 1    
   126   64  130 1    
   127   65   66 1    
   128   65   69 1    
   129   65  131 1    
   130   66   67 am   BACKBONE|DICT|INTERRES
   131   66   68 2    
   132   67  132 1    
   133   67  133 1    
   134   69   70 1    
   135   69  134 1    
   136   69  135 1    
   137   70   71 1    
   138   71  136 1    
   139   71  137 1    
@<TRIPOS>SUBSTRUCTURE
     1 UNK         1 GROUP             0       ****    0 ROOT    
