@<TRIPOS>MOLECULE
3R136
137   139    1
SMALL
USER_CHARGES


@<TRIPOS>ATOM
      1 CA         26.1686   22.4734    4.8161 C.3       0 UNK        -0.1979 
      2 C          27.3562   23.4314    4.7446 C.2       0 UNK         0.4864 
      3 O          27.5518   24.2115    5.6750 O.2       0 UNK        -0.5359 
      4 N          28.1833   23.4085    3.6887 N.am      1 UNK        -0.4318 
      5 CA         28.0674   22.6036    2.4644 C.3       1 UNK         0.0824 
      6 C6         29.3438   22.7239    1.5943 C.3       12 UNK        -0.0944 
      7 S7         30.7998   22.0361    2.4480 S.3       12 UNK        -0.2672 
      8 C8         32.0026   21.9277    1.0866 C.3       12 UNK         0.0333 
      9 C9         32.5809   23.2901    0.7337 C.ar      12 UNK        -0.0807 
     10 C10        33.5397   23.8754    1.5674 C.ar      12 UNK        -0.0894 
     11 C11        34.0925   25.1191    1.2496 C.ar      12 UNK        -0.0804 
     12 C12        33.6904   25.7692    0.0805 C.ar      12 UNK        -0.0824 
     13 C13        32.7174   25.2060   -0.7493 C.ar      12 UNK        -0.0762 
     14 C14        32.1693   23.9612   -0.4232 C.ar      12 UNK        -0.0782 
     15 C15        32.2408   25.9691   -1.9768 C.3       12 UNK         0.0230 
     16 S16        30.6354   26.7867   -1.6971 S.3       12 UNK        -0.2608 
     17 C17        30.9116   27.6529   -0.1135 C.3       12 UNK        -0.0989 
     18 CA         29.7200   28.5429    0.3102 C.3       5 UNK         0.0716 
     19 N          28.4443   27.8131    0.2836 N.am      5 UNK        -0.4135 
     20 C          27.2358   28.3293    0.5502 C.2       4 UNK         0.5031 
     21 O          27.0618   29.4971    0.9015 O.2       4 UNK        -0.5229 
     22 CA         26.0296   27.3748    0.4642 C.3       4 UNK         0.0329 
     23 CB         24.7238   28.0991    0.0727 C.3       4 UNK        -0.2001 
     24 N          26.2562   26.1869   -0.3707 N.am      4 UNK        -0.4303 
     25 C          26.4220   26.1328   -1.7036 C.2       3 UNK         0.5044 
     26 O          26.4450   27.1272   -2.4291 O.2       3 UNK        -0.5152 
     27 CA         26.5988   24.7407   -2.3513 C.3       3 UNK         0.0319 
     28 CB         28.0195   24.5699   -2.9136 C.3       3 UNK        -0.2001 
     29 N          26.3209   23.6207   -1.4488 N.am      3 UNK        -0.4354 
     30 C          25.1072   23.2601   -1.0095 C.2       2 UNK         0.4964 
     31 O          24.0581   23.7704   -1.4024 O.2       2 UNK        -0.5047 
     32 CA         25.0540   22.1685    0.0777 C.3       2 UNK         0.0288 
     33 CB         24.7109   20.8066   -0.5484 C.3       2 UNK        -0.2113 
     34 N          26.2760   22.0318    0.8860 N.am      2 UNK        -0.4145 
     35 C          26.8230   22.9960    1.6423 C.2       1 UNK         0.5006 
     36 O          26.4017   24.1544    1.6819 O.2       1 UNK        -0.5103 
     37 C          30.0143   29.1787    1.6841 C.2       5 UNK         0.5055 
     38 O          30.5669   30.2776    1.7399 O.2       5 UNK        -0.5220 
     39 N          29.5926   28.4953    2.7592 N.am      6 UNK        -0.4450 
     40 CA         29.7108   28.9124    4.1592 C.3       6 UNK         0.0367 
     41 CB         29.2396   27.7576    5.0588 C.3       6 UNK        -0.1929 
     42 C          28.9704   30.2180    4.5167 C.2       6 UNK         0.5070 
     43 O          29.2258   30.7755    5.5841 O.2       6 UNK        -0.5237 
     44 N          28.0723   30.6929    3.6410 N.am      7 UNK        -0.4739 
     45 CA         27.4204   31.9980    3.7674 C.3       7 UNK         0.0276 
     46 CB         26.1265   31.9971    2.9369 C.3       7 UNK        -0.1927 
     47 C          28.3293   33.1684    3.3427 C.2       7 UNK         0.5013 
     48 O          28.0262   34.3074    3.7016 O.2       7 UNK        -0.5193 
     49 N          29.3972   32.8867    2.5814 N.am      8 UNK        -0.4253 
     50 CA         30.3265   33.8810    2.0408 C.3       8 UNK         0.0242 
     51 CB         30.2703   33.8443    0.5037 C.3       8 UNK        -0.2000 
     52 C          31.7598   33.6460    2.5364 C.2       8 UNK         0.4948 
     53 O          32.4015   34.5938    2.9923 O.2       8 UNK        -0.5275 
     54 N          32.2419   32.4028    2.4304 N.am      9 UNK        -0.4246 
     55 CA         33.5721   31.9769    2.8611 C.3       9 UNK         0.0261 
     56 CB         34.0740   30.9028    1.8818 C.3       9 UNK        -0.1959 
     57 C          33.5152   31.4131    4.2869 C.2       9 UNK         0.5033 
     58 O          32.4509   30.9909    4.7423 O.2       9 UNK        -0.5390 
     59 N          34.6724   31.3477    4.9571 N.am      10 UNK        -0.4215 
     60 CA         34.8400   30.7929    6.3080 C.3       10 UNK         0.0240 
     61 CB         36.1201   31.3818    6.9316 C.3       10 UNK        -0.1982 
     62 C          34.8220   29.2466    6.3363 C.2       10 UNK         0.4970 
     63 O          35.6795   28.6319    6.9733 O.2       10 UNK        -0.4916 
     64 N          33.8540   28.6495    5.6346 N.am      11 UNK        -0.4279 
     65 CA         33.6650   27.1981    5.4834 C.3       11 UNK         0.1003 
     66 C          32.6771   26.5880    6.5183 C.2       11 UNK         0.5709 
     67 N          32.0508   27.3728    7.3877 N.am      11 UNK        -0.7358 
     68 O          32.4885   25.3746    6.5461 O.2       11 UNK        -0.4999 
     69 C69        33.2670   26.8323    4.0284 C.3       12 UNK        -0.0954 
     70 S70        34.5327   27.3599    2.8238 S.3       12 UNK        -0.2268 
     71 C71        35.1219   25.7679    2.1641 C.3       12 UNK         0.0203 
     72 H72        26.4328   21.4711    4.4826 H         1 UNK         0.0888 
     73 H73        25.8137   22.3891    5.8431 H         1 UNK         0.0888 
     74 H74        25.3424   22.8429    4.2094 H         1 UNK         0.0888 
     75 H75        28.9678   24.0427    3.6947 H         1 UNK         0.3017 
     76 H76        27.9581   21.5585    2.7601 H         1 UNK         0.0873 
     77 H77        29.5454   23.7651    1.3329 H         1 UNK         0.0745 
     78 H78        29.2228   22.1852    0.6523 H         1 UNK         0.0745 
     79 H79        32.8133   21.2631    1.3893 H         1 UNK         0.0705 
     80 H80        31.5378   21.4606    0.2170 H         1 UNK         0.0705 
     81 H81        33.8483   23.3620    2.4680 H         1 UNK         0.1334 
     82 H82        34.1137   26.7343   -0.1631 H         1 UNK         0.1417 
     83 H83        31.4161   23.5239   -1.0645 H         1 UNK         0.1562 
     84 H84        32.1495   25.2861   -2.8227 H         1 UNK         0.0748 
     85 H85        32.9750   26.7211   -2.2703 H         1 UNK         0.0748 
     86 H86        31.8207   28.2519   -0.2009 H         1 UNK         0.0940 
     87 H87        31.1091   26.9028    0.6554 H         1 UNK         0.0940 
     88 H88        29.6315   29.3594   -0.4094 H         1 UNK         0.0703 
     89 H89        28.4931   26.8546   -0.0278 H         1 UNK         0.3081 
     90 H90        25.8917   26.9930    1.4769 H         1 UNK         0.0719 
     91 H91        24.8048   28.5851   -0.8999 H         1 UNK         0.0809 
     92 H92        23.8826   27.4070    0.0344 H         1 UNK         0.0809 
     93 H93        24.4722   28.8726    0.7994 H         1 UNK         0.0809 
     94 H94        26.2680   25.3133    0.1494 H         1 UNK         0.2990 
     95 H95        25.8957   24.6890   -3.1854 H         1 UNK         0.0690 
     96 H96        28.2892   25.4006   -3.5676 H         1 UNK         0.0788 
     97 H97        28.1041   23.6569   -3.5032 H         1 UNK         0.0788 
     98 H98        28.7642   24.5240   -2.1188 H         1 UNK         0.0788 
     99 H99        27.1211   23.1238   -1.0874 H         1 UNK         0.2993 
    100 H100       24.2458   22.4441    0.7588 H         1 UNK         0.0949 
    101 H101       25.5001   20.4590   -1.2164 H         1 UNK         0.0767 
    102 H102       24.5561   20.0448    0.2161 H         1 UNK         0.0767 
    103 H103       23.7915   20.8651   -1.1332 H         1 UNK         0.0767 
    104 H104       26.6953   21.1125    0.8970 H         1 UNK         0.3013 
    105 H105       29.1267   27.6150    2.5978 H         1 UNK         0.3121 
    106 H106       30.7686   29.0850    4.3575 H         1 UNK         0.0774 
    107 H107       28.1901   27.5139    4.8889 H         1 UNK         0.0815 
    108 H108       29.3464   28.0158    6.1133 H         1 UNK         0.0815 
    109 H109       29.8268   26.8543    4.8916 H         1 UNK         0.0815 
    110 H110       27.8909   30.1779    2.7861 H         1 UNK         0.2987 
    111 H111       27.1505   32.1561    4.8140 H         1 UNK         0.0949 
    112 H112       26.3317   31.8977    1.8704 H         1 UNK         0.0806 
    113 H113       25.4653   31.1811    3.2288 H         1 UNK         0.0806 
    114 H114       25.5742   32.9276    3.0753 H         1 UNK         0.0806 
    115 H115       29.5991   31.9150    2.3688 H         1 UNK         0.3010 
    116 H116       30.0392   34.8851    2.3601 H         1 UNK         0.0829 
    117 H117       29.2750   34.1003    0.1402 H         1 UNK         0.0813 
    118 H118       30.9683   34.5614    0.0693 H         1 UNK         0.0813 
    119 H119       30.5252   32.8590    0.1108 H         1 UNK         0.0813 
    120 H120       31.6248   31.6548    2.1172 H         1 UNK         0.3038 
    121 H121       34.2621   32.8233    2.8430 H         1 UNK         0.0769 
    122 H122       33.4104   30.0371    1.8617 H         1 UNK         0.0811 
    123 H123       35.0674   30.5458    2.1566 H         1 UNK         0.0811 
    124 H124       34.1404   31.2936    0.8664 H         1 UNK         0.0811 
    125 H125       35.5139   31.6678    4.4989 H         1 UNK         0.3204 
    126 H126       33.9976   31.1237    6.9195 H         1 UNK         0.0748 
    127 H127       37.0129   31.0771    6.3839 H         1 UNK         0.0771 
    128 H128       36.0899   32.4716    6.9460 H         1 UNK         0.0771 
    129 H129       36.2418   31.0524    7.9645 H         1 UNK         0.0771 
    130 H130       33.1780   29.2483    5.1704 H         1 UNK         0.2980 
    131 H131       34.6186   26.7054    5.6819 H         1 UNK         0.0545 
    132 H132       31.4234   26.9603    8.0594 H         1 UNK         0.3459 
    133 H133       32.2060   28.3677    7.3847 H         1 UNK         0.3459 
    134 H134       33.1078   25.7572    3.9297 H         1 UNK         0.0616 
    135 H135       32.3219   27.3036    3.7563 H         1 UNK         0.0616 
    136 H136       36.0385   25.9402    1.5986 H         1 UNK         0.0634 
    137 H137       35.3884   25.1101    2.9929 H         1 UNK         0.0634 
@<TRIPOS>BOND
     1    1    2 1    
     2    1   72 1    
     3    1   73 1    
     4    1   74 1    
     5    2    3 2    
     6    2    4 am   BACKBONE|DICT|INTERRES
     7    4    5 1    
     8    4   75 1    
     9    5    6 1    
    10    5   35 1    
    11    5   76 1    
    12    6    7 1    
    13    6   77 1    
    14    6   78 1    
    15    7    8 1    
    16    8    9 1    
    17    8   79 1    
    18    8   80 1    
    19    9   10 ar   
    20    9   14 ar   
    21   10   11 ar   
    22   10   81 1    
    23   11   12 ar   
    24   11   71 1    
    25   12   13 ar   
    26   12   82 1    
    27   13   14 ar   
    28   13   15 1    
    29   14   83 1    
    30   15   16 1    
    31   15   84 1    
    32   15   85 1    
    33   16   17 1    
    34   17   18 1    
    35   17   86 1    
    36   17   87 1    
    37   18   19 1    
    38   18   37 1    
    39   18   88 1    
    40   19   20 am   BACKBONE|DICT|INTERRES
    41   19   89 1    
    42   20   21 2    
    43   20   22 1    
    44   22   23 1    
    45   22   24 1    
    46   22   90 1    
    47   23   91 1    
    48   23   92 1    
    49   23   93 1    
    50   24   25 am   BACKBONE|DICT|INTERRES
    51   24   94 1    
    52   25   26 2    
    53   25   27 1    
    54   27   28 1    
    55   27   29 1    
    56   27   95 1    
    57   28   96 1    
    58   28   97 1    
    59   28   98 1    
    60   29   30 am   BACKBONE|DICT|INTERRES
    61   29   99 1    
    62   30   31 2    
    63   30   32 1    
    64   32   33 1    
    65   32   34 1    
    66   32  100 1    
    67   33  101 1    
    68   33  102 1    
    69   33  103 1    
    70   34   35 am   BACKBONE|DICT|INTERRES
    71   34  104 1    
    72   35   36 2    
    73   37   38 2    
    74   37   39 am   BACKBONE|DICT|INTERRES
    75   39   40 1    
    76   39  105 1    
    77   40   41 1    
    78   40   42 1    
    79   40  106 1    
    80   41  107 1    
    81   41  108 1    
    82   41  109 1    
    83   42   43 2    
    84   42   44 am   BACKBONE|DICT|INTERRES
    85   44   45 1    
    86   44  110 1    
    87   45   46 1    
    88   45   47 1    
    89   45  111 1    
    90   46  112 1    
    91   46  113 1    
    92   46  114 1    
    93   47   48 2    
    94   47   49 am   BACKBONE|DICT|INTERRES
    95   49   50 1    
    96   49  115 1    
    97   50   51 1    
    98   50   52 1    
    99   50  116 1    
   100   51  117 1    
   101   51  118 1    
   102   51  119 1    
   103   52   53 2    
   104   52   54 am   BACKBONE|DICT|INTERRES
   105   54   55 1    
   106   54  120 1    
   107   55   56 1    
   108   55   57 1    
   109   55  121 1    
   110   56  122 1    
   111   56  123 1    
   112   56  124 1    
   113   57   58 2    
   114   57   59 am   BACKBONE|DICT|INTERRES
   115   59   60 1    
   116   59  125 1    
   117   60   61 1    
   118   60   62 1    
   119   60  126 1    
   120   61  127 1    
   121   61  128 1    
   122   61  129 1    
   123   62   63 2    
   124   62   64 am   BACKBONE|DICT|INTERRES
   125   64   65 1    
   126   64  130 1    
   127   65   66 1    
   128   65   69 1    
   129   65  131 1    
   130   66   67 am   BACKBONE|DICT|INTERRES
   131   66   68 2    
   132   67  132 1    
   133   67  133 1    
   134   69   70 1    
   135   69  134 1    
   136   69  135 1    
   137   70   71 1    
   138   71  136 1    
   139   71  137 1    
@<TRIPOS>SUBSTRUCTURE
     1 UNK         1 GROUP             0       ****    0 ROOT    
