@<TRIPOS>MOLECULE
3R136
137   139    1
SMALL
USER_CHARGES


@<TRIPOS>ATOM
      1 CA         33.6431   20.9889   -1.2253 C.3       0 UNK        -0.1979 
      2 C          32.7876   22.2258   -0.9926 C.2       0 UNK         0.4864 
      3 O          33.1256   23.3041   -1.4838 O.2       0 UNK        -0.5359 
      4 N          31.6881   22.0806   -0.2414 N.am      1 UNK        -0.4318 
      5 CA         30.7183   23.1451    0.0290 C.3       1 UNK         0.0824 
      6 C6         29.8256   22.7909    1.2473 C.3       12 UNK        -0.0944 
      7 S7         28.9668   24.2466    1.9446 S.3       12 UNK        -0.2672 
      8 C8         29.7673   24.3827    3.5709 C.3       12 UNK         0.0333 
      9 C9         29.2562   25.5894    4.3427 C.ar      12 UNK        -0.0807 
     10 C10        30.1105   26.6587    4.6281 C.ar      12 UNK        -0.0894 
     11 C11        29.6550   27.7519    5.3704 C.ar      12 UNK        -0.0804 
     12 C12        28.3248   27.7876    5.7981 C.ar      12 UNK        -0.0824 
     13 C13        27.4575   26.7286    5.5112 C.ar      12 UNK        -0.0762 
     14 C14        27.9332   25.6257    4.7953 C.ar      12 UNK        -0.0782 
     15 C15        26.0100   26.7729    5.9840 C.3       12 UNK         0.0230 
     16 S16        24.8302   26.9268    4.6023 S.3       12 UNK        -0.2608 
     17 C17        25.3961   28.4610    3.7894 C.3       12 UNK        -0.0989 
     18 CA         26.1626   28.1610    2.4699 C.3       5 UNK         0.0716 
     19 N          25.3649   27.4367    1.4673 N.am      5 UNK        -0.4135 
     20 C          24.2293   27.8481    0.8813 C.2       4 UNK         0.5031 
     21 O          23.6915   28.9293    1.1230 O.2       4 UNK        -0.5229 
     22 CA         23.6019   26.9282   -0.1888 C.3       4 UNK         0.0329 
     23 CB         23.3796   27.6945   -1.5053 C.3       4 UNK        -0.2001 
     24 N          24.3987   25.7332   -0.4824 N.am      4 UNK        -0.4303 
     25 C          24.4493   24.6161    0.2519 C.2       3 UNK         0.5044 
     26 O          23.7763   24.4395    1.2666 O.2       3 UNK        -0.5152 
     27 CA         25.4560   23.5330   -0.1803 C.3       3 UNK         0.0319 
     28 CB         24.7943   22.4908   -1.1026 C.3       3 UNK        -0.2001 
     29 N          26.7098   24.0530   -0.7543 N.am      3 UNK        -0.4354 
     30 C          26.9183   24.6725   -1.9291 C.2       2 UNK         0.4964 
     31 O          26.0177   24.9357   -2.7254 O.2       2 UNK        -0.5047 
     32 CA         28.3527   25.1408   -2.2521 C.3       2 UNK         0.0288 
     33 CB         28.4114   26.6773   -2.3155 C.3       2 UNK        -0.2113 
     34 N          29.3457   24.6813   -1.2792 N.am      2 UNK        -0.4145 
     35 C          29.8597   23.4466   -1.2187 C.2       1 UNK         0.5006 
     36 O          29.6239   22.5618   -2.0459 O.2       1 UNK        -0.5103 
     37 C          26.8757   29.4030    1.8863 C.2       5 UNK         0.5055 
     38 O          27.2794   30.2915    2.6379 O.2       5 UNK        -0.5220 
     39 N          27.0607   29.4275    0.5574 N.am      6 UNK        -0.4450 
     40 CA         27.7952   30.4662   -0.1698 C.3       6 UNK         0.0367 
     41 CB         27.3542   30.4564   -1.6427 C.3       6 UNK        -0.1929 
     42 C          29.3239   30.3139   -0.0615 C.2       6 UNK         0.5070 
     43 O          30.0451   31.2656   -0.3623 O.2       6 UNK        -0.5237 
     44 N          29.8037   29.1400    0.3764 N.am      7 UNK        -0.4739 
     45 CA         31.2183   28.8003    0.5688 C.3       7 UNK         0.0276 
     46 CB         31.3682   27.2670    0.5607 C.3       7 UNK        -0.1927 
     47 C          31.8186   29.4416    1.8369 C.2       7 UNK         0.5013 
     48 O          32.4385   28.7490    2.6457 O.2       7 UNK        -0.5193 
     49 N          31.6401   30.7619    1.9826 N.am      8 UNK        -0.4253 
     50 CA         32.0524   31.5785    3.1304 C.3       8 UNK         0.0242 
     51 CB         31.6425   33.0390    2.8880 C.3       8 UNK        -0.2000 
     52 C          33.5483   31.4895    3.4748 C.2       8 UNK         0.4948 
     53 O          33.9019   31.6144    4.6467 O.2       8 UNK        -0.5275 
     54 N          34.3914   31.2139    2.4699 N.am      9 UNK        -0.4246 
     55 CA         35.8262   30.9551    2.6132 C.3       9 UNK         0.0261 
     56 CB         36.4504   30.7960    1.2173 C.3       9 UNK        -0.1959 
     57 C          36.1664   29.7371    3.4955 C.2       9 UNK         0.5033 
     58 O          37.2590   29.7074    4.0636 O.2       9 UNK        -0.5390 
     59 N          35.2443   28.7681    3.6133 N.am      10 UNK        -0.4215 
     60 CA         35.3808   27.6227    4.5169 C.3       10 UNK         0.0240 
     61 CB         34.4693   26.4805    4.0403 C.3       10 UNK        -0.1982 
     62 C          35.0726   27.9847    5.9815 C.2       10 UNK         0.4970 
     63 O          35.5960   27.3229    6.8789 O.2       10 UNK        -0.4916 
     64 N          34.2391   29.0103    6.1986 N.am      11 UNK        -0.4279 
     65 CA         33.8880   29.5361    7.5252 C.3       11 UNK         0.1003 
     66 C          34.8651   30.6476    7.9903 C.2       11 UNK         0.5709 
     67 N          35.3088   31.5351    7.1092 N.am      11 UNK        -0.7358 
     68 O          35.2317   30.6987    9.1619 O.2       11 UNK        -0.4999 
     69 C69        32.4193   30.0296    7.5747 C.3       12 UNK        -0.0954 
     70 S70        31.2359   28.6514    7.4275 S.3       12 UNK        -0.2268 
     71 C71        30.6054   28.8799    5.7385 C.3       12 UNK         0.0203 
     72 H72        33.2473   20.1155   -0.7072 H         1 UNK         0.0888 
     73 H73        33.6889   20.7599   -2.2896 H         1 UNK         0.0888 
     74 H74        34.6583   21.1622   -0.8694 H         1 UNK         0.0888 
     75 H75        31.4441   21.1641    0.1058 H         1 UNK         0.3017 
     76 H76        31.2914   24.0430    0.2735 H         1 UNK         0.0873 
     77 H77        29.0837   22.0329    0.9871 H         1 UNK         0.0745 
     78 H78        30.4356   22.3424    2.0334 H         1 UNK         0.0745 
     79 H79        30.8484   24.4420    3.4335 H         1 UNK         0.0705 
     80 H80        29.5739   23.4771    4.1478 H         1 UNK         0.0705 
     81 H81        31.1363   26.6345    4.2894 H         1 UNK         0.1334 
     82 H82        27.9718   28.6361    6.3683 H         1 UNK         0.1417 
     83 H83        27.2679   24.8013    4.5759 H         1 UNK         0.1562 
     84 H84        25.8525   27.5995    6.6786 H         1 UNK         0.0748 
     85 H85        25.7859   25.8613    6.5397 H         1 UNK         0.0748 
     86 H86        26.0208   29.0179    4.4895 H         1 UNK         0.0940 
     87 H87        24.5308   29.0979    3.6016 H         1 UNK         0.0940 
     88 H88        26.9797   27.4843    2.7238 H         1 UNK         0.0703 
     89 H89        25.7032   26.5179    1.2239 H         1 UNK         0.3081 
     90 H90        22.6283   26.6125    0.1917 H         1 UNK         0.0719 
     91 H91        22.8967   27.0653   -2.2533 H         1 UNK         0.0809 
     92 H92        24.3190   28.0548   -1.9267 H         1 UNK         0.0809 
     93 H93        22.7356   28.5620   -1.3538 H         1 UNK         0.0809 
     94 H94        24.9509   25.7435   -1.3354 H         1 UNK         0.2990 
     95 H95        25.7539   23.0133    0.7321 H         1 UNK         0.0690 
     96 H96        25.4906   21.6938   -1.3635 H         1 UNK         0.0788 
     97 H97        24.4293   22.9349   -2.0291 H         1 UNK         0.0788 
     98 H98        23.9390   22.0257   -0.6104 H         1 UNK         0.0788 
     99 H99        27.5158   23.9396   -0.1548 H         1 UNK         0.2993 
    100 H100       28.6110   24.7413   -3.2353 H         1 UNK         0.0949 
    101 H101       27.7182   27.0660   -3.0631 H         1 UNK         0.0767 
    102 H102       28.1502   27.1308   -1.3594 H         1 UNK         0.0767 
    103 H103       29.4070   27.0262   -2.5913 H         1 UNK         0.0767 
    104 H104       29.5737   25.3258   -0.5369 H         1 UNK         0.3013 
    105 H105       26.6753   28.6746    0.0081 H         1 UNK         0.3121 
    106 H106       27.5350   31.4381    0.2556 H         1 UNK         0.0774 
    107 H107       27.8453   31.2551   -2.2005 H         1 UNK         0.0815 
    108 H108       27.6024   29.5174   -2.1371 H         1 UNK         0.0815 
    109 H109       26.2794   30.6132   -1.7368 H         1 UNK         0.0815 
    110 H110       29.1359   28.4374    0.6527 H         1 UNK         0.2987 
    111 H111       31.7858   29.1925   -0.2780 H         1 UNK         0.0949 
    112 H112       31.0303   26.8457   -0.3849 H         1 UNK         0.0806 
    113 H113       32.4119   26.9731    0.6826 H         1 UNK         0.0806 
    114 H114       30.8036   26.8014    1.3697 H         1 UNK         0.0806 
    115 H115       31.1241   31.2331    1.2444 H         1 UNK         0.3010 
    116 H116       31.5028   31.2122    3.9989 H         1 UNK         0.0829 
    117 H117       30.5648   33.1309    2.7513 H         1 UNK         0.0813 
    118 H118       31.9146   33.6677    3.7372 H         1 UNK         0.0813 
    119 H119       32.1298   33.4537    2.0046 H         1 UNK         0.0813 
    120 H120       34.0052   31.1282    1.5412 H         1 UNK         0.3038 
    121 H121       36.2697   31.8318    3.0899 H         1 UNK         0.0769 
    122 H122       36.0256   29.9475    0.6792 H         1 UNK         0.0811 
    123 H123       37.5266   30.6310    1.2876 H         1 UNK         0.0811 
    124 H124       36.3017   31.6894    0.6104 H         1 UNK         0.0811 
    125 H125       34.3553   28.8575    3.1274 H         1 UNK         0.3204 
    126 H126       36.4124   27.2664    4.4749 H         1 UNK         0.0748 
    127 H127       34.6045   25.5907    4.6566 H         1 UNK         0.0771 
    128 H128       33.4173   26.7569    4.0963 H         1 UNK         0.0771 
    129 H129       34.6878   26.1993    3.0100 H         1 UNK         0.0771 
    130 H130       33.9116   29.5524    5.4115 H         1 UNK         0.2980 
    131 H131       33.9774   28.7288    8.2552 H         1 UNK         0.0545 
    132 H132       34.9335   31.5467    6.1637 H         1 UNK         0.3459 
    133 H133       35.9486   32.2534    7.4073 H         1 UNK         0.3459 
    134 H134       32.2295   30.7739    6.7991 H         1 UNK         0.0616 
    135 H135       32.2135   30.5231    8.5265 H         1 UNK         0.0616 
    136 H136       31.4465   28.9117    5.0465 H         1 UNK         0.0634 
    137 H137       30.0951   29.8411    5.6620 H         1 UNK         0.0634 
@<TRIPOS>BOND
     1    1    2 1    
     2    1   72 1    
     3    1   73 1    
     4    1   74 1    
     5    2    3 2    
     6    2    4 am   BACKBONE|DICT|INTERRES
     7    4    5 1    
     8    4   75 1    
     9    5    6 1    
    10    5   35 1    
    11    5   76 1    
    12    6    7 1    
    13    6   77 1    
    14    6   78 1    
    15    7    8 1    
    16    8    9 1    
    17    8   79 1    
    18    8   80 1    
    19    9   10 ar   
    20    9   14 ar   
    21   10   11 ar   
    22   10   81 1    
    23   11   12 ar   
    24   11   71 1    
    25   12   13 ar   
    26   12   82 1    
    27   13   14 ar   
    28   13   15 1    
    29   14   83 1    
    30   15   16 1    
    31   15   84 1    
    32   15   85 1    
    33   16   17 1    
    34   17   18 1    
    35   17   86 1    
    36   17   87 1    
    37   18   19 1    
    38   18   37 1    
    39   18   88 1    
    40   19   20 am   BACKBONE|DICT|INTERRES
    41   19   89 1    
    42   20   21 2    
    43   20   22 1    
    44   22   23 1    
    45   22   24 1    
    46   22   90 1    
    47   23   91 1    
    48   23   92 1    
    49   23   93 1    
    50   24   25 am   BACKBONE|DICT|INTERRES
    51   24   94 1    
    52   25   26 2    
    53   25   27 1    
    54   27   28 1    
    55   27   29 1    
    56   27   95 1    
    57   28   96 1    
    58   28   97 1    
    59   28   98 1    
    60   29   30 am   BACKBONE|DICT|INTERRES
    61   29   99 1    
    62   30   31 2    
    63   30   32 1    
    64   32   33 1    
    65   32   34 1    
    66   32  100 1    
    67   33  101 1    
    68   33  102 1    
    69   33  103 1    
    70   34   35 am   BACKBONE|DICT|INTERRES
    71   34  104 1    
    72   35   36 2    
    73   37   38 2    
    74   37   39 am   BACKBONE|DICT|INTERRES
    75   39   40 1    
    76   39  105 1    
    77   40   41 1    
    78   40   42 1    
    79   40  106 1    
    80   41  107 1    
    81   41  108 1    
    82   41  109 1    
    83   42   43 2    
    84   42   44 am   BACKBONE|DICT|INTERRES
    85   44   45 1    
    86   44  110 1    
    87   45   46 1    
    88   45   47 1    
    89   45  111 1    
    90   46  112 1    
    91   46  113 1    
    92   46  114 1    
    93   47   48 2    
    94   47   49 am   BACKBONE|DICT|INTERRES
    95   49   50 1    
    96   49  115 1    
    97   50   51 1    
    98   50   52 1    
    99   50  116 1    
   100   51  117 1    
   101   51  118 1    
   102   51  119 1    
   103   52   53 2    
   104   52   54 am   BACKBONE|DICT|INTERRES
   105   54   55 1    
   106   54  120 1    
   107   55   56 1    
   108   55   57 1    
   109   55  121 1    
   110   56  122 1    
   111   56  123 1    
   112   56  124 1    
   113   57   58 2    
   114   57   59 am   BACKBONE|DICT|INTERRES
   115   59   60 1    
   116   59  125 1    
   117   60   61 1    
   118   60   62 1    
   119   60  126 1    
   120   61  127 1    
   121   61  128 1    
   122   61  129 1    
   123   62   63 2    
   124   62   64 am   BACKBONE|DICT|INTERRES
   125   64   65 1    
   126   64  130 1    
   127   65   66 1    
   128   65   69 1    
   129   65  131 1    
   130   66   67 am   BACKBONE|DICT|INTERRES
   131   66   68 2    
   132   67  132 1    
   133   67  133 1    
   134   69   70 1    
   135   69  134 1    
   136   69  135 1    
   137   70   71 1    
   138   71  136 1    
   139   71  137 1    
@<TRIPOS>SUBSTRUCTURE
     1 UNK         1 GROUP             0       ****    0 ROOT    
