@<TRIPOS>MOLECULE
3R136
137   139    1
SMALL
USER_CHARGES


@<TRIPOS>ATOM
      1 CA         30.3687   24.2199   -5.0795 C.3       0 UNK        -0.1979 
      2 C          29.5527   24.8857   -3.9814 C.2       0 UNK         0.4864 
      3 O          28.6610   25.6808   -4.2800 O.2       0 UNK        -0.5359 
      4 N          29.8521   24.5659   -2.7151 N.am      1 UNK        -0.4318 
      5 CA         29.1636   25.0868   -1.5265 C.3       1 UNK         0.0824 
      6 C6         29.9937   24.8601   -0.2403 C.3       12 UNK        -0.0944 
      7 S7         30.4237   23.1118    0.0676 S.3       12 UNK        -0.2672 
      8 C8         31.6214   23.2840    1.4275 C.3       12 UNK         0.0333 
      9 C9         31.0095   23.9525    2.6508 C.ar      12 UNK        -0.0807 
     10 C10        31.5037   25.1800    3.1041 C.ar      12 UNK        -0.0894 
     11 C11        30.9528   25.7919    4.2332 C.ar      12 UNK        -0.0804 
     12 C12        29.8979   25.1694    4.9064 C.ar      12 UNK        -0.0824 
     13 C13        29.3747   23.9569    4.4455 C.ar      12 UNK        -0.0762 
     14 C14        29.9459   23.3452    3.3265 C.ar      12 UNK        -0.0782 
     15 C15        28.1770   23.3208    5.1402 C.3       12 UNK         0.0230 
     16 S16        26.6142   23.6588    4.2571 S.3       12 UNK        -0.2608 
     17 C17        26.5666   25.4820    4.2934 C.3       12 UNK        -0.0989 
     18 CA         27.0298   26.0798    2.9311 C.3       5 UNK         0.0716 
     19 N          25.9638   26.0927    1.9224 N.am      5 UNK        -0.4135 
     20 C          24.8508   26.8424    1.9511 C.2       4 UNK         0.5031 
     21 O          24.5876   27.6651    2.8291 O.2       4 UNK        -0.5229 
     22 CA         23.8377   26.6228    0.8162 C.3       4 UNK         0.0329 
     23 CB         24.1659   27.5176   -0.3904 C.3       4 UNK        -0.2001 
     24 N          23.7573   25.2241    0.3892 N.am      4 UNK        -0.4303 
     25 C          23.2416   24.2265    1.1261 C.2       3 UNK         0.5044 
     26 O          22.7466   24.3903    2.2418 O.2       3 UNK        -0.5152 
     27 CA         23.2505   22.8100    0.5175 C.3       3 UNK         0.0319 
     28 CB         21.8233   22.3744    0.1446 C.3       3 UNK        -0.2001 
     29 N          24.1009   22.7086   -0.6705 N.am      3 UNK        -0.4354 
     30 C          25.4324   22.5675   -0.6463 C.2       2 UNK         0.4964 
     31 O          26.0780   22.3730    0.3850 O.2       2 UNK        -0.5047 
     32 CA         26.1655   22.6697   -2.0011 C.3       2 UNK         0.0288 
     33 CB         25.3226   23.3246   -3.1208 C.3       2 UNK        -0.2113 
     34 N          27.4593   23.3552   -1.9058 N.am      2 UNK        -0.4145 
     35 C          27.7182   24.5627   -1.3749 C.2       1 UNK         0.5006 
     36 O          26.8822   25.2648   -0.7990 O.2       1 UNK        -0.5103 
     37 C          27.7155   27.4585    3.0521 C.2       5 UNK         0.5055 
     38 O          27.8115   28.0231    4.1441 O.2       5 UNK        -0.5220 
     39 N          28.1891   27.9698    1.9114 N.am      6 UNK        -0.4450 
     40 CA         29.0127   29.1681    1.8022 C.3       6 UNK         0.0367 
     41 CB         28.1607   30.3313    1.2692 C.3       6 UNK        -0.1929 
     42 C          30.1665   28.8467    0.8489 C.2       6 UNK         0.5070 
     43 O          29.9661   28.0992   -0.1103 O.2       6 UNK        -0.5237 
     44 N          31.3434   29.4134    1.1217 N.am      7 UNK        -0.4739 
     45 CA         32.5643   29.2181    0.3454 C.3       7 UNK         0.0276 
     46 CB         33.2387   27.8836    0.7392 C.3       7 UNK        -0.1927 
     47 C          33.4388   30.4612    0.5473 C.2       7 UNK         0.5013 
     48 O          33.0987   31.5239    0.0241 O.2       7 UNK        -0.5193 
     49 N          34.5205   30.3235    1.3242 N.am      8 UNK        -0.4253 
     50 CA         35.3581   31.4258    1.8004 C.3       8 UNK         0.0242 
     51 CB         36.6408   30.8365    2.4118 C.3       8 UNK        -0.2000 
     52 C          34.6191   32.2993    2.8313 C.2       8 UNK         0.4948 
     53 O          33.6033   31.8710    3.3896 O.2       8 UNK        -0.5275 
     54 N          35.1634   33.4972    3.0894 N.am      9 UNK        -0.4246 
     55 CA         34.6692   34.4563    4.0830 C.3       9 UNK         0.0261 
     56 CB         35.5711   35.7018    4.0864 C.3       9 UNK        -0.1959 
     57 C          34.5956   33.8272    5.4846 C.2       9 UNK         0.5033 
     58 O          35.6231   33.3836    6.0036 O.2       9 UNK        -0.5390 
     59 N          33.3718   33.7351    6.0255 N.am      10 UNK        -0.4215 
     60 CA         33.0062   33.0516    7.2751 C.3       10 UNK         0.0240 
     61 CB         33.5573   33.8237    8.4935 C.3       10 UNK        -0.1982 
     62 C          33.3865   31.5530    7.3017 C.2       10 UNK         0.4970 
     63 O          33.6090   31.0051    8.3828 O.2       10 UNK        -0.4916 
     64 N          33.4654   30.9223    6.1195 N.am      11 UNK        -0.4279 
     65 CA         33.9618   29.5553    5.9001 C.3       11 UNK         0.1003 
     66 C          35.4971   29.3898    6.1382 C.2       11 UNK         0.5709 
     67 N          36.2804   30.4616    6.2106 N.am      11 UNK        -0.7358 
     68 O          36.0021   28.2738    6.2281 O.2       11 UNK        -0.4999 
     69 C69        33.0837   28.4880    6.6189 C.3       12 UNK        -0.0954 
     70 S70        32.9844   26.8978    5.7300 S.3       12 UNK        -0.2268 
     71 C71        31.4864   27.1285    4.7249 C.3       12 UNK         0.0203 
     72 H72        30.8769   24.9747   -5.6790 H         1 UNK         0.0888 
     73 H73        31.1224   23.5442   -4.6754 H         1 UNK         0.0888 
     74 H74        29.7156   23.6457   -5.7361 H         1 UNK         0.0888 
     75 H75        30.5979   23.9105   -2.5262 H         1 UNK         0.3017 
     76 H76        29.0721   26.1661   -1.6649 H         1 UNK         0.0873 
     77 H77        29.4679   25.2573    0.6297 H         1 UNK         0.0745 
     78 H78        30.9204   25.4315   -0.3082 H         1 UNK         0.0745 
     79 H79        32.4884   23.8412    1.0689 H         1 UNK         0.0705 
     80 H80        31.9852   22.2941    1.7062 H         1 UNK         0.0705 
     81 H81        32.3232   25.6574    2.5857 H         1 UNK         0.1334 
     82 H82        29.4686   25.6445    5.7779 H         1 UNK         0.1417 
     83 H83        29.5465   22.4071    2.9649 H         1 UNK         0.1562 
     84 H84        28.0952   23.6766    6.1685 H         1 UNK         0.0748 
     85 H85        28.3211   22.2412    5.2033 H         1 UNK         0.0748 
     86 H86        27.1828   25.8176    5.1274 H         1 UNK         0.0940 
     87 H87        25.5557   25.8050    4.5447 H         1 UNK         0.0940 
     88 H88        27.8066   25.4295    2.5259 H         1 UNK         0.0703 
     89 H89        26.1118   25.4968    1.1143 H         1 UNK         0.3081 
     90 H90        22.8545   26.9133    1.1928 H         1 UNK         0.0719 
     91 H91        25.1332   27.2724   -0.8298 H         1 UNK         0.0809 
     92 H92        23.4099   27.4255   -1.1703 H         1 UNK         0.0809 
     93 H93        24.2005   28.5677   -0.0967 H         1 UNK         0.0809 
     94 H94        24.1699   24.9981   -0.5039 H         1 UNK         0.2990 
     95 H95        23.6260   22.1279    1.2835 H         1 UNK         0.0690 
     96 H96        21.8073   21.3540   -0.2389 H         1 UNK         0.0788 
     97 H97        21.3857   23.0261   -0.6128 H         1 UNK         0.0788 
     98 H98        21.1667   22.4009    1.0155 H         1 UNK         0.0788 
     99 H99        23.6487   22.8417   -1.5641 H         1 UNK         0.2993 
    100 H100       26.3833   21.6437   -2.3016 H         1 UNK         0.0949 
    101 H101       25.8938   23.3944   -4.0471 H         1 UNK         0.0767 
    102 H102       24.4299   22.7415   -3.3496 H         1 UNK         0.0767 
    103 H103       25.0093   24.3356   -2.8563 H         1 UNK         0.0767 
    104 H104       28.2445   22.8546   -2.2960 H         1 UNK         0.3013 
    105 H105       28.1158   27.4358    1.0545 H         1 UNK         0.3121 
    106 H106       29.4273   29.4367    2.7766 H         1 UNK         0.0774 
    107 H107       28.7556   31.2406    1.1751 H         1 UNK         0.0815 
    108 H108       27.7443   30.1085    0.2858 H         1 UNK         0.0815 
    109 H109       27.3313   30.5526    1.9411 H         1 UNK         0.0815 
    110 H110       31.4164   30.0707    1.8878 H         1 UNK         0.2987 
    111 H111       32.3153   29.1805   -0.7178 H         1 UNK         0.0949 
    112 H112       34.1857   27.7489    0.2147 H         1 UNK         0.0806 
    113 H113       33.4327   27.8195    1.8105 H         1 UNK         0.0806 
    114 H114       32.6085   27.0362    0.4706 H         1 UNK         0.0806 
    115 H115       34.7014   29.4162    1.7263 H         1 UNK         0.3010 
    116 H116       35.6243   32.0520    0.9460 H         1 UNK         0.0829 
    117 H117       37.1950   30.2487    1.6796 H         1 UNK         0.0813 
    118 H118       37.3108   31.6215    2.7649 H         1 UNK         0.0813 
    119 H119       36.4227   30.1906    3.2629 H         1 UNK         0.0813 
    120 H120       36.0134   33.7533    2.6083 H         1 UNK         0.3038 
    121 H121       33.6674   34.7622    3.7742 H         1 UNK         0.0769 
    122 H122       35.2169   36.4371    4.8102 H         1 UNK         0.0811 
    123 H123       35.5823   36.1886    3.1110 H         1 UNK         0.0811 
    124 H124       36.6001   35.4547    4.3515 H         1 UNK         0.0811 
    125 H125       32.5939   34.1007    5.4924 H         1 UNK         0.3204 
    126 H126       31.9172   33.0819    7.3313 H         1 UNK         0.0748 
    127 H127       33.1748   33.4103    9.4277 H         1 UNK         0.0771 
    128 H128       34.6460   33.7802    8.5405 H         1 UNK         0.0771 
    129 H129       33.2649   34.8733    8.4636 H         1 UNK         0.0771 
    130 H130       33.3095   31.4522    5.2664 H         1 UNK         0.2980 
    131 H131       33.8392   29.4076    4.8266 H         1 UNK         0.0545 
    132 H132       37.2682   30.3321    6.3575 H         1 UNK         0.3459 
    133 H133       35.9038   31.4014    6.1438 H         1 UNK         0.3459 
    134 H134       33.4557   28.2992    7.6274 H         1 UNK         0.0616 
    135 H135       32.0669   28.8594    6.7535 H         1 UNK         0.0616 
    136 H136       30.7195   27.6401    5.3086 H         1 UNK         0.0634 
    137 H137       31.7140   27.7780    3.8783 H         1 UNK         0.0634 
@<TRIPOS>BOND
     1    1    2 1    
     2    1   72 1    
     3    1   73 1    
     4    1   74 1    
     5    2    3 2    
     6    2    4 am   BACKBONE|DICT|INTERRES
     7    4    5 1    
     8    4   75 1    
     9    5    6 1    
    10    5   35 1    
    11    5   76 1    
    12    6    7 1    
    13    6   77 1    
    14    6   78 1    
    15    7    8 1    
    16    8    9 1    
    17    8   79 1    
    18    8   80 1    
    19    9   10 ar   
    20    9   14 ar   
    21   10   11 ar   
    22   10   81 1    
    23   11   12 ar   
    24   11   71 1    
    25   12   13 ar   
    26   12   82 1    
    27   13   14 ar   
    28   13   15 1    
    29   14   83 1    
    30   15   16 1    
    31   15   84 1    
    32   15   85 1    
    33   16   17 1    
    34   17   18 1    
    35   17   86 1    
    36   17   87 1    
    37   18   19 1    
    38   18   37 1    
    39   18   88 1    
    40   19   20 am   BACKBONE|DICT|INTERRES
    41   19   89 1    
    42   20   21 2    
    43   20   22 1    
    44   22   23 1    
    45   22   24 1    
    46   22   90 1    
    47   23   91 1    
    48   23   92 1    
    49   23   93 1    
    50   24   25 am   BACKBONE|DICT|INTERRES
    51   24   94 1    
    52   25   26 2    
    53   25   27 1    
    54   27   28 1    
    55   27   29 1    
    56   27   95 1    
    57   28   96 1    
    58   28   97 1    
    59   28   98 1    
    60   29   30 am   BACKBONE|DICT|INTERRES
    61   29   99 1    
    62   30   31 2    
    63   30   32 1    
    64   32   33 1    
    65   32   34 1    
    66   32  100 1    
    67   33  101 1    
    68   33  102 1    
    69   33  103 1    
    70   34   35 am   BACKBONE|DICT|INTERRES
    71   34  104 1    
    72   35   36 2    
    73   37   38 2    
    74   37   39 am   BACKBONE|DICT|INTERRES
    75   39   40 1    
    76   39  105 1    
    77   40   41 1    
    78   40   42 1    
    79   40  106 1    
    80   41  107 1    
    81   41  108 1    
    82   41  109 1    
    83   42   43 2    
    84   42   44 am   BACKBONE|DICT|INTERRES
    85   44   45 1    
    86   44  110 1    
    87   45   46 1    
    88   45   47 1    
    89   45  111 1    
    90   46  112 1    
    91   46  113 1    
    92   46  114 1    
    93   47   48 2    
    94   47   49 am   BACKBONE|DICT|INTERRES
    95   49   50 1    
    96   49  115 1    
    97   50   51 1    
    98   50   52 1    
    99   50  116 1    
   100   51  117 1    
   101   51  118 1    
   102   51  119 1    
   103   52   53 2    
   104   52   54 am   BACKBONE|DICT|INTERRES
   105   54   55 1    
   106   54  120 1    
   107   55   56 1    
   108   55   57 1    
   109   55  121 1    
   110   56  122 1    
   111   56  123 1    
   112   56  124 1    
   113   57   58 2    
   114   57   59 am   BACKBONE|DICT|INTERRES
   115   59   60 1    
   116   59  125 1    
   117   60   61 1    
   118   60   62 1    
   119   60  126 1    
   120   61  127 1    
   121   61  128 1    
   122   61  129 1    
   123   62   63 2    
   124   62   64 am   BACKBONE|DICT|INTERRES
   125   64   65 1    
   126   64  130 1    
   127   65   66 1    
   128   65   69 1    
   129   65  131 1    
   130   66   67 am   BACKBONE|DICT|INTERRES
   131   66   68 2    
   132   67  132 1    
   133   67  133 1    
   134   69   70 1    
   135   69  134 1    
   136   69  135 1    
   137   70   71 1    
   138   71  136 1    
   139   71  137 1    
@<TRIPOS>SUBSTRUCTURE
     1 UNK         1 GROUP             0       ****    0 ROOT    
