@<TRIPOS>MOLECULE
3R136
137   139    1
SMALL
USER_CHARGES


@<TRIPOS>ATOM
      1 CA         34.3941   20.9596    0.5997 C.3       0 UNK        -0.1979 
      2 C          33.4835   22.1741    0.7010 C.2       0 UNK         0.4864 
      3 O          33.9736   23.3040    0.7527 O.2       0 UNK        -0.5359 
      4 N          32.1619   21.9533    0.7352 N.am      1 UNK        -0.4318 
      5 CA         31.1502   23.0112    0.7724 C.3       1 UNK         0.0824 
      6 C6         29.7593   22.4658    1.1850 C.3       12 UNK        -0.0944 
      7 S7         28.7692   23.7449    2.0214 S.3       12 UNK        -0.2672 
      8 C8         29.1443   23.3436    3.7541 C.3       12 UNK         0.0333 
      9 C9         28.6867   24.4531    4.6835 C.ar      12 UNK        -0.0807 
     10 C10        29.5326   25.5331    4.9442 C.ar      12 UNK        -0.0894 
     11 C11        29.1283   26.5662    5.7955 C.ar      12 UNK        -0.0804 
     12 C12        27.8644   26.5038    6.3934 C.ar      12 UNK        -0.0824 
     13 C13        27.0053   25.4295    6.1361 C.ar      12 UNK        -0.0762 
     14 C14        27.4274   24.4018    5.2859 C.ar      12 UNK        -0.0782 
     15 C15        25.6247   25.3745    6.7797 C.3       12 UNK         0.0230 
     16 S16        24.2861   25.2730    5.5452 S.3       12 UNK        -0.2608 
     17 C17        24.1850   26.9872    4.9173 C.3       12 UNK        -0.0989 
     18 CA         25.2906   27.3693    3.8917 C.3       5 UNK         0.0716 
     19 N          25.5150   26.3597    2.8511 N.am      5 UNK        -0.4135 
     20 C          24.6853   26.0101    1.8602 C.2       4 UNK         0.5031 
     21 O          23.5616   26.4863    1.6873 O.2       4 UNK        -0.5229 
     22 CA         25.2421   24.9698    0.8715 C.3       4 UNK         0.0329 
     23 CB         24.1318   24.0446    0.3417 C.3       4 UNK        -0.2001 
     24 N          25.9652   25.5446   -0.2720 N.am      4 UNK        -0.4303 
     25 C          26.9461   26.4593   -0.2512 C.2       3 UNK         0.5044 
     26 O          27.3249   27.0740    0.7496 O.2       3 UNK        -0.5152 
     27 CA         27.6625   26.7175   -1.5779 C.3       3 UNK         0.0319 
     28 CB         27.4291   28.1558   -2.0783 C.3       3 UNK        -0.2001 
     29 N          29.0789   26.4639   -1.3393 N.am      3 UNK        -0.4354 
     30 C          30.0141   26.2674   -2.2757 C.2       2 UNK         0.4964 
     31 O          29.8037   26.3499   -3.4863 O.2       2 UNK        -0.5047 
     32 CA         31.4185   25.8823   -1.7822 C.3       2 UNK         0.0288 
     33 CB         32.2894   27.1223   -1.5277 C.3       2 UNK        -0.2113 
     34 N          31.3812   25.0528   -0.5754 N.am      2 UNK        -0.4145 
     35 C          31.1061   23.7427   -0.5834 C.2       1 UNK         0.5006 
     36 O          30.8479   23.1006   -1.6053 O.2       1 UNK        -0.5103 
     37 C          25.1093   28.7991    3.3276 C.2       5 UNK         0.5055 
     38 O          24.5127   29.6444    3.9981 O.2       5 UNK        -0.5220 
     39 N          25.6263   29.0482    2.1167 N.am      6 UNK        -0.4450 
     40 CA         25.5314   30.3231    1.4008 C.3       6 UNK         0.0367 
     41 CB         24.7201   30.1057    0.1128 C.3       6 UNK        -0.1929 
     42 C          26.9128   30.9194    1.0843 C.2       6 UNK         0.5070 
     43 O          26.9839   32.0857    0.6938 O.2       6 UNK        -0.5237 
     44 N          27.9807   30.1279    1.2472 N.am      7 UNK        -0.4739 
     45 CA         29.3716   30.5513    1.0895 C.3       7 UNK         0.0276 
     46 CB         30.2207   29.3016    0.8099 C.3       7 UNK        -0.1927 
     47 C          29.8882   31.3404    2.3101 C.2       7 UNK         0.5013 
     48 O          29.1547   31.5508    3.2800 O.2       7 UNK        -0.5193 
     49 N          31.1528   31.7672    2.2351 N.am      8 UNK        -0.4253 
     50 CA         31.8635   32.5097    3.2725 C.3       8 UNK         0.0242 
     51 CB         31.6449   34.0202    3.0562 C.3       8 UNK        -0.2000 
     52 C          33.3521   32.1348    3.2317 C.2       8 UNK         0.4948 
     53 O          33.7633   31.3437    2.3756 O.2       8 UNK        -0.5275 
     54 N          34.1314   32.7173    4.1555 N.am      9 UNK        -0.4246 
     55 CA         35.5742   32.5259    4.3456 C.3       9 UNK         0.0261 
     56 CB         36.3720   33.0980    3.1500 C.3       9 UNK        -0.1959 
     57 C          35.8944   31.0581    4.6800 C.2       9 UNK         0.5033 
     58 O          35.5595   30.6135    5.7793 O.2       9 UNK        -0.5390 
     59 N          36.5041   30.3293    3.7349 N.am      10 UNK        -0.4215 
     60 CA         36.7662   28.8901    3.8303 C.3       10 UNK         0.0240 
     61 CB         37.7055   28.4683    2.6886 C.3       10 UNK        -0.1982 
     62 C          35.4846   28.0351    3.8168 C.2       10 UNK         0.4970 
     63 O          35.4972   26.9349    4.3683 O.2       10 UNK        -0.4916 
     64 N          34.4147   28.5514    3.1951 N.am      11 UNK        -0.4279 
     65 CA         33.0611   27.9772    3.1258 C.3       11 UNK         0.1003 
     66 C          32.9057   26.6740    2.2821 C.2       11 UNK         0.5709 
     67 N          33.9747   26.0473    1.8075 N.am      11 UNK        -0.7358 
     68 O          31.7874   26.2469    2.0093 O.2       11 UNK        -0.4999 
     69 C69        32.4034   27.8670    4.5352 C.3       12 UNK        -0.0954 
     70 S70        30.7058   28.5289    4.5842 S.3       12 UNK        -0.2268 
     71 C71        30.0545   27.7406    6.0925 C.3       12 UNK         0.0203 
     72 H72        34.9959   21.0176   -0.3068 H         1 UNK         0.0888 
     73 H73        35.0682   20.9247    1.4551 H         1 UNK         0.0888 
     74 H74        33.8300   20.0274    0.5739 H         1 UNK         0.0888 
     75 H75        31.8124   21.0093    0.6547 H         1 UNK         0.3017 
     76 H76        31.4786   23.7142    1.5405 H         1 UNK         0.0873 
     77 H77        29.2004   22.0804    0.3297 H         1 UNK         0.0745 
     78 H78        29.8659   21.6195    1.8659 H         1 UNK         0.0745 
     79 H79        28.6665   22.3995    4.0204 H         1 UNK         0.0705 
     80 H80        30.2189   23.1908    3.8688 H         1 UNK         0.0705 
     81 H81        30.5035   25.5717    4.4707 H         1 UNK         0.1334 
     82 H82        27.5453   27.2969    7.0559 H         1 UNK         0.1417 
     83 H83        26.7680   23.5681    5.0847 H         1 UNK         0.1562 
     84 H84        25.4542   26.2347    7.4290 H         1 UNK         0.0748 
     85 H85        25.5753   24.4932    7.4205 H         1 UNK         0.0748 
     86 H86        24.2026   27.6690    5.7696 H         1 UNK         0.0940 
     87 H87        23.2007   27.1065    4.4605 H         1 UNK         0.0940 
     88 H88        26.2328   27.4247    4.4327 H         1 UNK         0.0703 
     89 H89        26.4370   25.9442    2.8552 H         1 UNK         0.3081 
     90 H90        25.9480   24.3426    1.4179 H         1 UNK         0.0719 
     91 H91        23.4221   24.5837   -0.2873 H         1 UNK         0.0809 
     92 H92        24.5437   23.2224   -0.2437 H         1 UNK         0.0809 
     93 H93        23.5673   23.6024    1.1639 H         1 UNK         0.0809 
     94 H94        25.7355   25.1371   -1.1667 H         1 UNK         0.2990 
     95 H95        27.3039   26.0128   -2.3312 H         1 UNK         0.0690 
     96 H96        27.9740   28.3538   -3.0011 H         1 UNK         0.0788 
     97 H97        27.7409   28.8982   -1.3437 H         1 UNK         0.0788 
     98 H98        26.3734   28.3238   -2.2911 H         1 UNK         0.0788 
     99 H99        29.3285   26.3674   -0.3629 H         1 UNK         0.2993 
    100 H100       31.8915   25.3078   -2.5822 H         1 UNK         0.0949 
    101 H101       32.2845   27.7918   -2.3890 H         1 UNK         0.0767 
    102 H102       31.9438   27.6889   -0.6660 H         1 UNK         0.0767 
    103 H103       33.3260   26.8405   -1.3409 H         1 UNK         0.0767 
    104 H104       31.5678   25.5103    0.3151 H         1 UNK         0.3013 
    105 H105       26.1155   28.2942    1.6408 H         1 UNK         0.3121 
    106 H106       25.0089   31.0646    2.0086 H         1 UNK         0.0774 
    107 H107       24.6391   31.0285   -0.4632 H         1 UNK         0.0815 
    108 H108       25.1793   29.3557   -0.5296 H         1 UNK         0.0815 
    109 H109       23.7064   29.7740    0.3383 H         1 UNK         0.0815 
    110 H110       27.8398   29.1816    1.5718 H         1 UNK         0.2987 
    111 H111       29.4388   31.2133    0.2232 H         1 UNK         0.0949 
    112 H112       29.8835   28.8050   -0.0981 H         1 UNK         0.0806 
    113 H113       31.2708   29.5525    0.6621 H         1 UNK         0.0806 
    114 H114       30.1600   28.5791    1.6243 H         1 UNK         0.0806 
    115 H115       31.7340   31.4943    1.4528 H         1 UNK         0.3010 
    116 H116       31.4811   32.2198    4.2539 H         1 UNK         0.0829 
    117 H117       30.5838   34.2706    3.0624 H         1 UNK         0.0813 
    118 H118       32.1147   34.6114    3.8427 H         1 UNK         0.0813 
    119 H119       32.0595   34.3531    2.1037 H         1 UNK         0.0813 
    120 H120       33.6881   33.3217    4.8334 H         1 UNK         0.3038 
    121 H121       35.8516   33.1048    5.2281 H         1 UNK         0.0769 
    122 H122       36.1185   32.6178    2.2045 H         1 UNK         0.0811 
    123 H123       37.4462   32.9854    3.3036 H         1 UNK         0.0811 
    124 H124       36.1798   34.1645    3.0325 H         1 UNK         0.0811 
    125 H125       36.7248   30.7788    2.8579 H         1 UNK         0.3204 
    126 H126       37.2739   28.7028    4.7790 H         1 UNK         0.0748 
    127 H127       38.6503   29.0109    2.7309 H         1 UNK         0.0771 
    128 H128       37.9426   27.4052    2.7508 H         1 UNK         0.0771 
    129 H129       37.2587   28.6460    1.7094 H         1 UNK         0.0771 
    130 H130       34.4979   29.4719    2.7765 H         1 UNK         0.2980 
    131 H131       32.5159   28.7305    2.5588 H         1 UNK         0.0545 
    132 H132       33.8756   25.1739    1.2999 H         1 UNK         0.3459 
    133 H133       34.8938   26.3723    2.0577 H         1 UNK         0.3459 
    134 H134       32.4216   26.8399    4.9032 H         1 UNK         0.0616 
    135 H135       32.9669   28.4450    5.2697 H         1 UNK         0.0616 
    136 H136       30.8741   27.4032    6.7282 H         1 UNK         0.0634 
    137 H137       29.5245   28.5058    6.6615 H         1 UNK         0.0634 
@<TRIPOS>BOND
     1    1    2 1    
     2    1   72 1    
     3    1   73 1    
     4    1   74 1    
     5    2    3 2    
     6    2    4 am   BACKBONE|DICT|INTERRES
     7    4    5 1    
     8    4   75 1    
     9    5    6 1    
    10    5   35 1    
    11    5   76 1    
    12    6    7 1    
    13    6   77 1    
    14    6   78 1    
    15    7    8 1    
    16    8    9 1    
    17    8   79 1    
    18    8   80 1    
    19    9   10 ar   
    20    9   14 ar   
    21   10   11 ar   
    22   10   81 1    
    23   11   12 ar   
    24   11   71 1    
    25   12   13 ar   
    26   12   82 1    
    27   13   14 ar   
    28   13   15 1    
    29   14   83 1    
    30   15   16 1    
    31   15   84 1    
    32   15   85 1    
    33   16   17 1    
    34   17   18 1    
    35   17   86 1    
    36   17   87 1    
    37   18   19 1    
    38   18   37 1    
    39   18   88 1    
    40   19   20 am   BACKBONE|DICT|INTERRES
    41   19   89 1    
    42   20   21 2    
    43   20   22 1    
    44   22   23 1    
    45   22   24 1    
    46   22   90 1    
    47   23   91 1    
    48   23   92 1    
    49   23   93 1    
    50   24   25 am   BACKBONE|DICT|INTERRES
    51   24   94 1    
    52   25   26 2    
    53   25   27 1    
    54   27   28 1    
    55   27   29 1    
    56   27   95 1    
    57   28   96 1    
    58   28   97 1    
    59   28   98 1    
    60   29   30 am   BACKBONE|DICT|INTERRES
    61   29   99 1    
    62   30   31 2    
    63   30   32 1    
    64   32   33 1    
    65   32   34 1    
    66   32  100 1    
    67   33  101 1    
    68   33  102 1    
    69   33  103 1    
    70   34   35 am   BACKBONE|DICT|INTERRES
    71   34  104 1    
    72   35   36 2    
    73   37   38 2    
    74   37   39 am   BACKBONE|DICT|INTERRES
    75   39   40 1    
    76   39  105 1    
    77   40   41 1    
    78   40   42 1    
    79   40  106 1    
    80   41  107 1    
    81   41  108 1    
    82   41  109 1    
    83   42   43 2    
    84   42   44 am   BACKBONE|DICT|INTERRES
    85   44   45 1    
    86   44  110 1    
    87   45   46 1    
    88   45   47 1    
    89   45  111 1    
    90   46  112 1    
    91   46  113 1    
    92   46  114 1    
    93   47   48 2    
    94   47   49 am   BACKBONE|DICT|INTERRES
    95   49   50 1    
    96   49  115 1    
    97   50   51 1    
    98   50   52 1    
    99   50  116 1    
   100   51  117 1    
   101   51  118 1    
   102   51  119 1    
   103   52   53 2    
   104   52   54 am   BACKBONE|DICT|INTERRES
   105   54   55 1    
   106   54  120 1    
   107   55   56 1    
   108   55   57 1    
   109   55  121 1    
   110   56  122 1    
   111   56  123 1    
   112   56  124 1    
   113   57   58 2    
   114   57   59 am   BACKBONE|DICT|INTERRES
   115   59   60 1    
   116   59  125 1    
   117   60   61 1    
   118   60   62 1    
   119   60  126 1    
   120   61  127 1    
   121   61  128 1    
   122   61  129 1    
   123   62   63 2    
   124   62   64 am   BACKBONE|DICT|INTERRES
   125   64   65 1    
   126   64  130 1    
   127   65   66 1    
   128   65   69 1    
   129   65  131 1    
   130   66   67 am   BACKBONE|DICT|INTERRES
   131   66   68 2    
   132   67  132 1    
   133   67  133 1    
   134   69   70 1    
   135   69  134 1    
   136   69  135 1    
   137   70   71 1    
   138   71  136 1    
   139   71  137 1    
@<TRIPOS>SUBSTRUCTURE
     1 UNK         1 GROUP             0       ****    0 ROOT    
