@<TRIPOS>MOLECULE
3R136
137   139    1
SMALL
USER_CHARGES


@<TRIPOS>ATOM
      1 CA         26.9972   18.1970   -0.3159 C.3       0 UNK        -0.1979 
      2 C          27.8311   19.3393   -0.8773 C.2       0 UNK         0.4864 
      3 O          28.3701   19.2192   -1.9788 O.2       0 UNK        -0.5359 
      4 N          27.9474   20.4429   -0.1270 N.am      1 UNK        -0.4318 
      5 CA         28.6526   21.6599   -0.5357 C.3       1 UNK         0.0824 
      6 C6         28.9270   22.5762    0.6818 C.3       12 UNK        -0.0944 
      7 S7         30.1340   23.9029    0.3272 S.3       12 UNK        -0.2672 
      8 C8         31.3670   23.6744    1.6530 C.3       12 UNK         0.0333 
      9 C9         30.9415   24.3588    2.9462 C.ar      12 UNK        -0.0807 
     10 C10        31.5234   25.5722    3.3308 C.ar      12 UNK        -0.0894 
     11 C11        31.1227   26.2092    4.5106 C.ar      12 UNK        -0.0804 
     12 C12        30.1213   25.6344    5.2990 C.ar      12 UNK        -0.0824 
     13 C13        29.5308   24.4254    4.9219 C.ar      12 UNK        -0.0762 
     14 C14        29.9628   23.7819    3.7605 C.ar      12 UNK        -0.0782 
     15 C15        28.3895   23.8328    5.7336 C.3       12 UNK         0.0230 
     16 S16        26.8062   23.9745    4.8393 S.3       12 UNK        -0.2608 
     17 C17        26.5704   25.7855    4.7920 C.3       12 UNK        -0.0989 
     18 CA         27.1110   26.4485    3.4902 C.3       5 UNK         0.0716 
     19 N          26.5782   25.8717    2.2511 N.am      5 UNK        -0.4135 
     20 C          25.2995   25.8388    1.8524 C.2       4 UNK         0.5031 
     21 O          24.3594   26.2780    2.5171 O.2       4 UNK        -0.5229 
     22 CA         25.0466   25.2409    0.4499 C.3       4 UNK         0.0329 
     23 CB         23.6849   25.6665   -0.1383 C.3       4 UNK        -0.2001 
     24 N          26.1240   25.5151   -0.5159 N.am      4 UNK        -0.4303 
     25 C          26.6095   26.7224   -0.8555 C.2       3 UNK         0.5044 
     26 O          26.2154   27.7716   -0.3491 O.2       3 UNK        -0.5152 
     27 CA         27.7605   26.7960   -1.8761 C.3       3 UNK         0.0319 
     28 CB         29.0124   27.4033   -1.2219 C.3       3 UNK        -0.2001 
     29 N          28.1116   25.4994   -2.4552 N.am      3 UNK        -0.4354 
     30 C          27.4665   24.9156   -3.4750 C.2       2 UNK         0.4964 
     31 O          26.5390   25.4406   -4.0911 O.2       2 UNK        -0.5047 
     32 CA         27.9140   23.4914   -3.8542 C.3       2 UNK         0.0288 
     33 CB         28.9159   23.5344   -5.0194 C.3       2 UNK        -0.2113 
     34 N          28.5016   22.7402   -2.7379 N.am      2 UNK        -0.4145 
     35 C          27.8447   22.3956   -1.6210 C.2       1 UNK         0.5006 
     36 O          26.6634   22.6796   -1.4054 O.2       1 UNK        -0.5103 
     37 C          27.0433   27.9939    3.5503 C.2       5 UNK         0.5055 
     38 O          27.2773   28.5567    4.6212 O.2       5 UNK        -0.5220 
     39 N          26.7800   28.6743    2.4221 N.am      6 UNK        -0.4450 
     40 CA         26.7599   30.1405    2.3359 C.3       6 UNK         0.0367 
     41 CB         25.8353   30.5734    1.1860 C.3       6 UNK        -0.1929 
     42 C          28.1593   30.7630    2.1643 C.2       6 UNK         0.5070 
     43 O          28.2717   31.9899    2.1758 O.2       6 UNK        -0.5237 
     44 N          29.2017   29.9347    2.0006 N.am      7 UNK        -0.4739 
     45 CA         30.5996   30.3273    1.7876 C.3       7 UNK         0.0276 
     46 CB         31.3709   29.1319    1.1974 C.3       7 UNK        -0.1927 
     47 C          31.2816   30.8983    3.0487 C.2       7 UNK         0.5013 
     48 O          32.3437   30.4195    3.4527 O.2       7 UNK        -0.5193 
     49 N          30.6892   31.9450    3.6362 N.am      8 UNK        -0.4253 
     50 CA         31.1935   32.6601    4.8144 C.3       8 UNK         0.0242 
     51 CB         30.1963   33.7604    5.2087 C.3       8 UNK        -0.2000 
     52 C          32.6042   33.2484    4.6284 C.2       8 UNK         0.4948 
     53 O          33.3574   33.3233    5.5974 O.2       8 UNK        -0.5275 
     54 N          32.9576   33.6028    3.3848 N.am      9 UNK        -0.4246 
     55 CA         34.3000   34.0343    2.9892 C.3       9 UNK         0.0261 
     56 CB         34.2446   34.6079    1.5638 C.3       9 UNK        -0.1959 
     57 C          35.3629   32.9208    3.0788 C.2       9 UNK         0.5033 
     58 O          36.5412   33.2413    3.2417 O.2       9 UNK        -0.5390 
     59 N          34.9465   31.6503    2.9677 N.am      10 UNK        -0.4215 
     60 CA         35.8170   30.4829    3.1086 C.3       10 UNK         0.0240 
     61 CB         35.3310   29.3489    2.1891 C.3       10 UNK        -0.1982 
     62 C          35.8707   30.0150    4.5690 C.2       10 UNK         0.4970 
     63 O          36.9642   29.7643    5.0775 O.2       10 UNK        -0.4916 
     64 N          34.7000   29.9027    5.2121 N.am      11 UNK        -0.4279 
     65 CA         34.5743   29.4816    6.6165 C.3       11 UNK         0.1003 
     66 C          35.0524   30.5347    7.6565 C.2       11 UNK         0.5709 
     67 N          35.0254   31.8286    7.3669 N.am      11 UNK        -0.7358 
     68 O          35.4720   30.1642    8.7506 O.2       11 UNK        -0.4999 
     69 C69        33.1440   28.9758    6.9365 C.3       12 UNK        -0.0954 
     70 S70        32.8775   27.2726    6.3435 S.3       12 UNK        -0.2268 
     71 C71        31.7562   27.5238    4.9373 C.3       12 UNK         0.0203 
     72 H72        26.5912   18.4331    0.6676 H         1 UNK         0.0888 
     73 H73        26.1638   17.9783   -0.9829 H         1 UNK         0.0888 
     74 H74        27.6059   17.2978   -0.2241 H         1 UNK         0.0888 
     75 H75        27.4547   20.4952    0.7530 H         1 UNK         0.3017 
     76 H76        29.6142   21.3540   -0.9548 H         1 UNK         0.0873 
     77 H77        29.3190   21.9576    1.4883 H         1 UNK         0.0745 
     78 H78        28.0069   23.0220    1.0654 H         1 UNK         0.0745 
     79 H79        31.5454   22.6124    1.8273 H         1 UNK         0.0705 
     80 H80        32.3180   24.0845    1.3097 H         1 UNK         0.0705 
     81 H81        32.2889   26.0206    2.7123 H         1 UNK         0.1334 
     82 H82        29.7958   26.1379    6.1992 H         1 UNK         0.1417 
     83 H83        29.5034   22.8456    3.4819 H         1 UNK         0.1562 
     84 H84        28.3052   24.3168    6.7079 H         1 UNK         0.0748 
     85 H85        28.5941   22.7794    5.9305 H         1 UNK         0.0748 
     86 H86        27.0504   26.2133    5.6740 H         1 UNK         0.0940 
     87 H87        25.5057   25.9928    4.9095 H         1 UNK         0.0940 
     88 H88        28.1781   26.2419    3.4358 H         1 UNK         0.0703 
     89 H89        27.2690   25.4801    1.6282 H         1 UNK         0.3081 
     90 H90        25.0257   24.1581    0.5833 H         1 UNK         0.0719 
     91 H91        23.5164   25.2126   -1.1149 H         1 UNK         0.0809 
     92 H92        23.6168   26.7487   -0.2548 H         1 UNK         0.0809 
     93 H93        22.8629   25.3557    0.5078 H         1 UNK         0.0809 
     94 H94        26.4991   24.6948   -0.9803 H         1 UNK         0.2990 
     95 H95        27.4391   27.4658   -2.6765 H         1 UNK         0.0690 
     96 H96        29.8310   27.4922   -1.9362 H         1 UNK         0.0788 
     97 H97        29.3633   26.8042   -0.3809 H         1 UNK         0.0788 
     98 H98        28.8056   28.4061   -0.8450 H         1 UNK         0.0788 
     99 H99        28.8673   24.9956   -2.0124 H         1 UNK         0.2993 
    100 H100       27.0241   22.9511   -4.1849 H         1 UNK         0.0949 
    101 H101       28.4965   24.0653   -5.8754 H         1 UNK         0.0767 
    102 H102       29.8392   24.0440   -4.7404 H         1 UNK         0.0767 
    103 H103       29.1740   22.5309   -5.3586 H         1 UNK         0.0767 
    104 H104       29.4709   22.4723   -2.8349 H         1 UNK         0.3013 
    105 H105       26.5796   28.1742    1.5598 H         1 UNK         0.3121 
    106 H106       26.3420   30.5404    3.2623 H         1 UNK         0.0774 
    107 H107       25.6824   31.6533    1.1960 H         1 UNK         0.0815 
    108 H108       26.2539   30.3177    0.2122 H         1 UNK         0.0815 
    109 H109       24.8535   30.1062    1.2641 H         1 UNK         0.0815 
    110 H110       29.0152   28.9441    2.0319 H         1 UNK         0.2987 
    111 H111       30.6153   31.1252    1.0420 H         1 UNK         0.0949 
    112 H112       31.3559   28.2702    1.8644 H         1 UNK         0.0806 
    113 H113       30.9546   28.8245    0.2400 H         1 UNK         0.0806 
    114 H114       32.4149   29.3884    1.0142 H         1 UNK         0.0806 
    115 H115       29.8056   32.2566    3.2390 H         1 UNK         0.3010 
    116 H116       31.2505   31.9388    5.6322 H         1 UNK         0.0829 
    117 H117       29.2152   33.3432    5.4366 H         1 UNK         0.0813 
    118 H118       30.5348   34.2941    6.0980 H         1 UNK         0.0813 
    119 H119       30.0714   34.4963    4.4133 H         1 UNK         0.0813 
    120 H120       32.2679   33.5223    2.6520 H         1 UNK         0.3038 
    121 H121       34.6077   34.8331    3.6675 H         1 UNK         0.0769 
    122 H122       35.2258   34.9673    1.2500 H         1 UNK         0.0811 
    123 H123       33.5582   35.4525    1.5012 H         1 UNK         0.0811 
    124 H124       33.9254   33.8588    0.8380 H         1 UNK         0.0811 
    125 H125       33.9524   31.4599    2.9018 H         1 UNK         0.3204 
    126 H126       36.8313   30.7457    2.7999 H         1 UNK         0.0748 
    127 H127       36.0169   28.5016    2.2258 H         1 UNK         0.0771 
    128 H128       34.3472   28.9782    2.4772 H         1 UNK         0.0771 
    129 H129       35.2757   29.6760    1.1507 H         1 UNK         0.0771 
    130 H130       33.8390   30.1048    4.7150 H         1 UNK         0.2980 
    131 H131       35.2527   28.6365    6.7527 H         1 UNK         0.0545 
    132 H132       34.5849   32.1773    6.5215 H         1 UNK         0.3459 
    133 H133       35.3513   32.4856    8.0569 H         1 UNK         0.3459 
    134 H134       32.9682   28.9498    8.0138 H         1 UNK         0.0616 
    135 H135       32.3902   29.6509    6.5274 H         1 UNK         0.0616 
    136 H136       32.3248   27.9579    4.1156 H         1 UNK         0.0634 
    137 H137       30.9740   28.2379    5.1992 H         1 UNK         0.0634 
@<TRIPOS>BOND
     1    1    2 1    
     2    1   72 1    
     3    1   73 1    
     4    1   74 1    
     5    2    3 2    
     6    2    4 am   BACKBONE|DICT|INTERRES
     7    4    5 1    
     8    4   75 1    
     9    5    6 1    
    10    5   35 1    
    11    5   76 1    
    12    6    7 1    
    13    6   77 1    
    14    6   78 1    
    15    7    8 1    
    16    8    9 1    
    17    8   79 1    
    18    8   80 1    
    19    9   10 ar   
    20    9   14 ar   
    21   10   11 ar   
    22   10   81 1    
    23   11   12 ar   
    24   11   71 1    
    25   12   13 ar   
    26   12   82 1    
    27   13   14 ar   
    28   13   15 1    
    29   14   83 1    
    30   15   16 1    
    31   15   84 1    
    32   15   85 1    
    33   16   17 1    
    34   17   18 1    
    35   17   86 1    
    36   17   87 1    
    37   18   19 1    
    38   18   37 1    
    39   18   88 1    
    40   19   20 am   BACKBONE|DICT|INTERRES
    41   19   89 1    
    42   20   21 2    
    43   20   22 1    
    44   22   23 1    
    45   22   24 1    
    46   22   90 1    
    47   23   91 1    
    48   23   92 1    
    49   23   93 1    
    50   24   25 am   BACKBONE|DICT|INTERRES
    51   24   94 1    
    52   25   26 2    
    53   25   27 1    
    54   27   28 1    
    55   27   29 1    
    56   27   95 1    
    57   28   96 1    
    58   28   97 1    
    59   28   98 1    
    60   29   30 am   BACKBONE|DICT|INTERRES
    61   29   99 1    
    62   30   31 2    
    63   30   32 1    
    64   32   33 1    
    65   32   34 1    
    66   32  100 1    
    67   33  101 1    
    68   33  102 1    
    69   33  103 1    
    70   34   35 am   BACKBONE|DICT|INTERRES
    71   34  104 1    
    72   35   36 2    
    73   37   38 2    
    74   37   39 am   BACKBONE|DICT|INTERRES
    75   39   40 1    
    76   39  105 1    
    77   40   41 1    
    78   40   42 1    
    79   40  106 1    
    80   41  107 1    
    81   41  108 1    
    82   41  109 1    
    83   42   43 2    
    84   42   44 am   BACKBONE|DICT|INTERRES
    85   44   45 1    
    86   44  110 1    
    87   45   46 1    
    88   45   47 1    
    89   45  111 1    
    90   46  112 1    
    91   46  113 1    
    92   46  114 1    
    93   47   48 2    
    94   47   49 am   BACKBONE|DICT|INTERRES
    95   49   50 1    
    96   49  115 1    
    97   50   51 1    
    98   50   52 1    
    99   50  116 1    
   100   51  117 1    
   101   51  118 1    
   102   51  119 1    
   103   52   53 2    
   104   52   54 am   BACKBONE|DICT|INTERRES
   105   54   55 1    
   106   54  120 1    
   107   55   56 1    
   108   55   57 1    
   109   55  121 1    
   110   56  122 1    
   111   56  123 1    
   112   56  124 1    
   113   57   58 2    
   114   57   59 am   BACKBONE|DICT|INTERRES
   115   59   60 1    
   116   59  125 1    
   117   60   61 1    
   118   60   62 1    
   119   60  126 1    
   120   61  127 1    
   121   61  128 1    
   122   61  129 1    
   123   62   63 2    
   124   62   64 am   BACKBONE|DICT|INTERRES
   125   64   65 1    
   126   64  130 1    
   127   65   66 1    
   128   65   69 1    
   129   65  131 1    
   130   66   67 am   BACKBONE|DICT|INTERRES
   131   66   68 2    
   132   67  132 1    
   133   67  133 1    
   134   69   70 1    
   135   69  134 1    
   136   69  135 1    
   137   70   71 1    
   138   71  136 1    
   139   71  137 1    
@<TRIPOS>SUBSTRUCTURE
     1 UNK         1 GROUP             0       ****    0 ROOT    
