@<TRIPOS>MOLECULE
3R136
137   139    1
SMALL
USER_CHARGES


@<TRIPOS>ATOM
      1 CA         26.2395   22.0416    1.2745 C.3       0 UNK        -0.1979 
      2 C          27.5625   22.4870    0.6728 C.2       0 UNK         0.4864 
      3 O          27.9119   23.6678    0.7465 O.2       0 UNK        -0.5359 
      4 N          28.2810   21.5419    0.0520 N.am      1 UNK        -0.4318 
      5 CA         29.5437   21.7466   -0.6717 C.3       1 UNK         0.0824 
      6 C6         30.7097   22.2245    0.2466 C.3       12 UNK        -0.0944 
      7 S7         30.9808   21.0950    1.6539 S.3       12 UNK        -0.2672 
      8 C8         31.9238   22.1470    2.8064 C.3       12 UNK         0.0333 
      9 C9         31.1000   23.2770    3.4170 C.ar      12 UNK        -0.0807 
     10 C10        31.5439   24.6001    3.3156 C.ar      12 UNK        -0.0894 
     11 C11        30.8283   25.6411    3.9155 C.ar      12 UNK        -0.0804 
     12 C12        29.6661   25.3446    4.6340 C.ar      12 UNK        -0.0824 
     13 C13        29.1816   24.0368    4.7018 C.ar      12 UNK        -0.0762 
     14 C14        29.9122   23.0039    4.1055 C.ar      12 UNK        -0.0782 
     15 C15        27.8628   23.7436    5.4042 C.3       12 UNK         0.0230 
     16 S16        26.4526   23.8179    4.2472 S.3       12 UNK        -0.2608 
     17 C17        26.0061   25.5888    4.2403 C.3       12 UNK        -0.0989 
     18 CA         26.7162   26.4133    3.1310 C.3       5 UNK         0.0716 
     19 N          26.4749   25.9322    1.7700 N.am      5 UNK        -0.4135 
     20 C          25.4254   26.1573    0.9701 C.2       4 UNK         0.5031 
     21 O          24.3911   26.7254    1.3246 O.2       4 UNK        -0.5229 
     22 CA         25.6191   25.7126   -0.4994 C.3       4 UNK         0.0329 
     23 CB         24.5952   26.3472   -1.4639 C.3       4 UNK        -0.2001 
     24 N          27.0003   25.9426   -0.9638 N.am      4 UNK        -0.4303 
     25 C          27.6477   27.1202   -0.9749 C.2       3 UNK         0.5044 
     26 O          27.1031   28.1982   -0.7446 O.2       3 UNK        -0.5152 
     27 CA         29.1726   27.1076   -1.1710 C.3       3 UNK         0.0319 
     28 CB         29.8661   27.3064    0.1881 C.3       3 UNK        -0.2001 
     29 N          29.6890   25.8808   -1.7741 N.am      3 UNK        -0.4354 
     30 C          29.6530   25.5871   -3.0814 C.2       2 UNK         0.4964 
     31 O          29.1459   26.3159   -3.9342 O.2       2 UNK        -0.5047 
     32 CA         30.3080   24.2595   -3.5124 C.3       2 UNK         0.0288 
     33 CB         31.7202   24.5121   -4.0659 C.3       2 UNK        -0.2113 
     34 N          30.3867   23.2789   -2.4230 N.am      2 UNK        -0.4145 
     35 C          29.3221   22.6388   -1.9189 C.2       1 UNK         0.5006 
     36 O          28.1939   22.7395   -2.4112 O.2       1 UNK        -0.5103 
     37 C          26.5725   27.9429    3.3246 C.2       5 UNK         0.5055 
     38 O          26.2029   28.3808    4.4166 O.2       5 UNK        -0.5220 
     39 N          26.8998   28.7464    2.3000 N.am      6 UNK        -0.4450 
     40 CA         27.0232   30.2000    2.4255 C.3       6 UNK         0.0367 
     41 CB         27.0477   30.8487    1.0323 C.3       6 UNK        -0.1929 
     42 C          28.2964   30.5565    3.2086 C.2       6 UNK         0.5070 
     43 O          29.3960   30.2421    2.7495 O.2       6 UNK        -0.5237 
     44 N          28.1316   31.2286    4.3567 N.am      7 UNK        -0.4739 
     45 CA         29.2170   31.6315    5.2633 C.3       7 UNK         0.0276 
     46 CB         28.6163   32.2668    6.5267 C.3       7 UNK        -0.1927 
     47 C          30.2543   32.5749    4.6281 C.2       7 UNK         0.5013 
     48 O          31.4153   32.5666    5.0407 O.2       7 UNK        -0.5193 
     49 N          29.8325   33.3242    3.5985 N.am      8 UNK        -0.4253 
     50 CA         30.6632   34.1944    2.7601 C.3       8 UNK         0.0242 
     51 CB         29.7621   34.9140    1.7431 C.3       8 UNK        -0.2000 
     52 C          31.8189   33.4735    2.0373 C.2       8 UNK         0.4948 
     53 O          32.7747   34.1382    1.6360 O.2       8 UNK        -0.5275 
     54 N          31.7388   32.1399    1.9080 N.am      9 UNK        -0.4246 
     55 CA         32.8178   31.2865    1.4069 C.3       9 UNK         0.0261 
     56 CB         32.2338   29.9140    1.0366 C.3       9 UNK        -0.1959 
     57 C          33.9962   31.1240    2.3905 C.2       9 UNK         0.5033 
     58 O          35.0293   30.5988    1.9731 O.2       9 UNK        -0.5390 
     59 N          33.8328   31.5577    3.6542 N.am      10 UNK        -0.4215 
     60 CA         34.7902   31.4568    4.7646 C.3       10 UNK         0.0240 
     61 CB         36.0593   32.2928    4.4904 C.3       10 UNK        -0.1982 
     62 C          35.0876   29.9868    5.1094 C.2       10 UNK         0.4970 
     63 O          36.2194   29.5232    4.9556 O.2       10 UNK        -0.4916 
     64 N          34.0267   29.2819    5.5191 N.am      11 UNK        -0.4279 
     65 CA         33.9803   27.8385    5.7937 C.3       11 UNK         0.1003 
     66 C          35.0338   27.3545    6.8285 C.2       11 UNK         0.5709 
     67 N          35.6111   26.1778    6.6254 N.am      11 UNK        -0.7358 
     68 O          35.2934   28.0132    7.8343 O.2       11 UNK        -0.4999 
     69 C69        32.5583   27.3873    6.2287 C.3       12 UNK        -0.0954 
     70 S70        31.2068   28.0991    5.2299 S.3       12 UNK        -0.2268 
     71 C71        31.2786   27.0851    3.7201 C.3       12 UNK         0.0203 
     72 H72        25.7292   21.3334    0.6221 H         1 UNK         0.0888 
     73 H73        26.4086   21.5634    2.2387 H         1 UNK         0.0888 
     74 H74        25.5787   22.8943    1.4271 H         1 UNK         0.0888 
     75 H75        27.9172   20.6005    0.0144 H         1 UNK         0.3017 
     76 H76        29.8197   20.7681   -1.0676 H         1 UNK         0.0873 
     77 H77        30.5162   23.2292    0.6263 H         1 UNK         0.0745 
     78 H78        31.6509   22.2746   -0.3025 H         1 UNK         0.0745 
     79 H79        32.3030   21.5211    3.6151 H         1 UNK         0.0705 
     80 H80        32.8001   22.5377    2.2868 H         1 UNK         0.0705 
     81 H81        32.4474   24.8212    2.7640 H         1 UNK         0.1334 
     82 H82        29.1074   26.1434    5.1019 H         1 UNK         0.1417 
     83 H83        29.5514   21.9862    4.1663 H         1 UNK         0.1562 
     84 H84        27.7070   24.4305    6.2373 H         1 UNK         0.0748 
     85 H85        27.8986   22.7450    5.8423 H         1 UNK         0.0748 
     86 H86        26.2259   25.9884    5.2317 H         1 UNK         0.0940 
     87 H87        24.9243   25.6683    4.1212 H         1 UNK         0.0940 
     88 H88        27.7827   26.2580    3.2406 H         1 UNK         0.0703 
     89 H89        27.2104   25.3389    1.3914 H         1 UNK         0.3081 
     90 H90        25.4642   24.6331   -0.5174 H         1 UNK         0.0719 
     91 H91        24.6452   27.4363   -1.4513 H         1 UNK         0.0809 
     92 H92        24.7585   26.0153   -2.4891 H         1 UNK         0.0809 
     93 H93        23.5773   26.0669   -1.1905 H         1 UNK         0.0809 
     94 H94        27.5495   25.1048   -1.1103 H         1 UNK         0.2990 
     95 H95        29.4297   27.9509   -1.8158 H         1 UNK         0.0690 
     96 H96        30.9493   27.3561    0.0778 H         1 UNK         0.0788 
     97 H97        29.6374   26.4947    0.8808 H         1 UNK         0.0788 
     98 H98        29.5483   28.2376    0.6601 H         1 UNK         0.0788 
     99 H99        30.1222   25.2195   -1.1474 H         1 UNK         0.2993 
    100 H100       29.6961   23.8391   -4.3139 H         1 UNK         0.0949 
    101 H101       32.1708   23.5921   -4.4391 H         1 UNK         0.0767 
    102 H102       31.6924   25.2173   -4.8981 H         1 UNK         0.0767 
    103 H103       32.3841   24.9294   -3.3076 H         1 UNK         0.0767 
    104 H104       31.2949   23.1316   -2.0067 H         1 UNK         0.3013 
    105 H105       27.1566   28.3482    1.4049 H         1 UNK         0.3121 
    106 H106       26.1488   30.5805    2.9581 H         1 UNK         0.0774 
    107 H107       27.0986   31.9354    1.1080 H         1 UNK         0.0815 
    108 H108       27.9101   30.5230    0.4488 H         1 UNK         0.0815 
    109 H109       26.1497   30.6037    0.4649 H         1 UNK         0.0815 
    110 H110       27.1908   31.4321    4.6645 H         1 UNK         0.2987 
    111 H111       29.7498   30.7251    5.5569 H         1 UNK         0.0949 
    112 H112       28.0422   33.1647    6.2945 H         1 UNK         0.0806 
    113 H113       27.9581   31.5705    7.0468 H         1 UNK         0.0806 
    114 H114       29.4000   32.5535    7.2296 H         1 UNK         0.0806 
    115 H115       28.8596   33.2468    3.3408 H         1 UNK         0.3010 
    116 H116       31.1133   34.9437    3.4145 H         1 UNK         0.0829 
    117 H117       28.9956   35.5087    2.2406 H         1 UNK         0.0813 
    118 H118       30.3428   35.5959    1.1200 H         1 UNK         0.0813 
    119 H119       29.2632   34.2092    1.0766 H         1 UNK         0.0813 
    120 H120       30.9123   31.6604    2.2512 H         1 UNK         0.3038 
    121 H121       33.2165   31.7418    0.4978 H         1 UNK         0.0769 
    122 H122       32.9948   29.2671    0.5983 H         1 UNK         0.0811 
    123 H123       31.4291   30.0088    0.3074 H         1 UNK         0.0811 
    124 H124       31.8350   29.4016    1.9119 H         1 UNK         0.0811 
    125 H125       32.9320   31.9548    3.9080 H         1 UNK         0.3204 
    126 H126       34.2979   31.8911    5.6364 H         1 UNK         0.0748 
    127 H127       36.7218   32.2862    5.3567 H         1 UNK         0.0771 
    128 H128       36.6304   31.9088    3.6446 H         1 UNK         0.0771 
    129 H129       35.8093   33.3328    4.2804 H         1 UNK         0.0771 
    130 H130       33.1396   29.7553    5.6053 H         1 UNK         0.2980 
    131 H131       34.2074   27.3519    4.8435 H         1 UNK         0.0545 
    132 H132       35.3936   25.6218    5.8132 H         1 UNK         0.3459 
    133 H133       36.2840   25.8413    7.2962 H         1 UNK         0.3459 
    134 H134       32.3691   27.6804    7.2632 H         1 UNK         0.0616 
    135 H135       32.4792   26.2989    6.2052 H         1 UNK         0.0616 
    136 H136       32.2877   27.1307    3.3087 H         1 UNK         0.0634 
    137 H137       30.6233   27.5460    2.9811 H         1 UNK         0.0634 
@<TRIPOS>BOND
     1    1    2 1    
     2    1   72 1    
     3    1   73 1    
     4    1   74 1    
     5    2    3 2    
     6    2    4 am   BACKBONE|DICT|INTERRES
     7    4    5 1    
     8    4   75 1    
     9    5    6 1    
    10    5   35 1    
    11    5   76 1    
    12    6    7 1    
    13    6   77 1    
    14    6   78 1    
    15    7    8 1    
    16    8    9 1    
    17    8   79 1    
    18    8   80 1    
    19    9   10 ar   
    20    9   14 ar   
    21   10   11 ar   
    22   10   81 1    
    23   11   12 ar   
    24   11   71 1    
    25   12   13 ar   
    26   12   82 1    
    27   13   14 ar   
    28   13   15 1    
    29   14   83 1    
    30   15   16 1    
    31   15   84 1    
    32   15   85 1    
    33   16   17 1    
    34   17   18 1    
    35   17   86 1    
    36   17   87 1    
    37   18   19 1    
    38   18   37 1    
    39   18   88 1    
    40   19   20 am   BACKBONE|DICT|INTERRES
    41   19   89 1    
    42   20   21 2    
    43   20   22 1    
    44   22   23 1    
    45   22   24 1    
    46   22   90 1    
    47   23   91 1    
    48   23   92 1    
    49   23   93 1    
    50   24   25 am   BACKBONE|DICT|INTERRES
    51   24   94 1    
    52   25   26 2    
    53   25   27 1    
    54   27   28 1    
    55   27   29 1    
    56   27   95 1    
    57   28   96 1    
    58   28   97 1    
    59   28   98 1    
    60   29   30 am   BACKBONE|DICT|INTERRES
    61   29   99 1    
    62   30   31 2    
    63   30   32 1    
    64   32   33 1    
    65   32   34 1    
    66   32  100 1    
    67   33  101 1    
    68   33  102 1    
    69   33  103 1    
    70   34   35 am   BACKBONE|DICT|INTERRES
    71   34  104 1    
    72   35   36 2    
    73   37   38 2    
    74   37   39 am   BACKBONE|DICT|INTERRES
    75   39   40 1    
    76   39  105 1    
    77   40   41 1    
    78   40   42 1    
    79   40  106 1    
    80   41  107 1    
    81   41  108 1    
    82   41  109 1    
    83   42   43 2    
    84   42   44 am   BACKBONE|DICT|INTERRES
    85   44   45 1    
    86   44  110 1    
    87   45   46 1    
    88   45   47 1    
    89   45  111 1    
    90   46  112 1    
    91   46  113 1    
    92   46  114 1    
    93   47   48 2    
    94   47   49 am   BACKBONE|DICT|INTERRES
    95   49   50 1    
    96   49  115 1    
    97   50   51 1    
    98   50   52 1    
    99   50  116 1    
   100   51  117 1    
   101   51  118 1    
   102   51  119 1    
   103   52   53 2    
   104   52   54 am   BACKBONE|DICT|INTERRES
   105   54   55 1    
   106   54  120 1    
   107   55   56 1    
   108   55   57 1    
   109   55  121 1    
   110   56  122 1    
   111   56  123 1    
   112   56  124 1    
   113   57   58 2    
   114   57   59 am   BACKBONE|DICT|INTERRES
   115   59   60 1    
   116   59  125 1    
   117   60   61 1    
   118   60   62 1    
   119   60  126 1    
   120   61  127 1    
   121   61  128 1    
   122   61  129 1    
   123   62   63 2    
   124   62   64 am   BACKBONE|DICT|INTERRES
   125   64   65 1    
   126   64  130 1    
   127   65   66 1    
   128   65   69 1    
   129   65  131 1    
   130   66   67 am   BACKBONE|DICT|INTERRES
   131   66   68 2    
   132   67  132 1    
   133   67  133 1    
   134   69   70 1    
   135   69  134 1    
   136   69  135 1    
   137   70   71 1    
   138   71  136 1    
   139   71  137 1    
@<TRIPOS>SUBSTRUCTURE
     1 UNK         1 GROUP             0       ****    0 ROOT    
