@<TRIPOS>MOLECULE
3R136
137   139    1
SMALL
USER_CHARGES


@<TRIPOS>ATOM
      1 CA         28.9043   18.2636   -0.1130 C.3       0 UNK        -0.1979 
      2 C          28.6169   19.7543   -0.0090 C.2       0 UNK         0.4864 
      3 O          28.2363   20.3739   -1.0034 O.2       0 UNK        -0.5359 
      4 N          28.8056   20.3329    1.1836 N.am      1 UNK        -0.4318 
      5 CA         28.5407   21.7435    1.4872 C.3       1 UNK         0.0824 
      6 C6         29.1887   22.1823    2.8274 C.3       12 UNK        -0.0944 
      7 S7         30.9585   21.7409    2.9600 S.3       12 UNK        -0.2672 
      8 C8         31.7503   23.3405    3.3518 C.3       12 UNK         0.0333 
      9 C9         32.0268   24.2765    2.1713 C.ar      12 UNK        -0.0807 
     10 C10        32.6486   25.5008    2.4397 C.ar      12 UNK        -0.0894 
     11 C11        32.9635   26.3863    1.4060 C.ar      12 UNK        -0.0804 
     12 C12        32.6370   26.0521    0.0905 C.ar      12 UNK        -0.0824 
     13 C13        31.9897   24.8471   -0.1990 C.ar      12 UNK        -0.0762 
     14 C14        31.7071   23.9575    0.8431 C.ar      12 UNK        -0.0782 
     15 C15        31.6181   24.4841   -1.6344 C.3       12 UNK         0.0230 
     16 S16        30.8456   25.8590   -2.5558 S.3       12 UNK        -0.2608 
     17 C17        29.1400   25.8730   -1.9093 C.3       12 UNK        -0.0989 
     18 CA         28.9579   26.8439   -0.7031 C.3       5 UNK         0.0716 
     19 N          27.7337   27.6325   -0.8302 N.am      5 UNK        -0.4135 
     20 C          27.6235   28.9353   -0.5361 C.2       4 UNK         0.5031 
     21 O          28.5697   29.6316   -0.1682 O.2       4 UNK        -0.5229 
     22 CA         26.2344   29.5878   -0.6712 C.3       4 UNK         0.0329 
     23 CB         26.1607   30.4309   -1.9550 C.3       4 UNK        -0.2001 
     24 N          25.1294   28.6270   -0.6685 N.am      4 UNK        -0.4303 
     25 C          24.7010   27.9547    0.4080 C.2       3 UNK         0.5044 
     26 O          25.1630   28.1087    1.5392 O.2       3 UNK        -0.5152 
     27 CA         23.5729   26.9253    0.1947 C.3       3 UNK         0.0319 
     28 CB         23.0147   26.8787   -1.2473 C.3       3 UNK        -0.2001 
     29 N          23.9703   25.5794    0.6241 N.am      3 UNK        -0.4354 
     30 C          25.0364   24.8813    0.2056 C.2       2 UNK         0.4964 
     31 O          25.8610   25.2930   -0.6150 O.2       2 UNK        -0.5047 
     32 CA         25.1547   23.4550    0.7526 C.3       2 UNK         0.0288 
     33 CB         24.4069   22.4772   -0.1781 C.3       2 UNK        -0.2113 
     34 N          26.5629   23.0798    0.8734 N.am      2 UNK        -0.4145 
     35 C          27.0181   21.9950    1.5101 C.2       1 UNK         0.5006 
     36 O          26.2895   21.2030    2.1159 O.2       1 UNK        -0.5103 
     37 C          28.9061   26.1388    0.6639 C.2       5 UNK         0.5055 
     38 O          28.7086   24.9251    0.7292 O.2       5 UNK        -0.5220 
     39 N          29.0229   26.9204    1.7407 N.am      6 UNK        -0.4450 
     40 CA         29.0179   26.4587    3.1228 C.3       6 UNK         0.0367 
     41 CB         27.5964   26.0495    3.5572 C.3       6 UNK        -0.1929 
     42 C          29.5564   27.5858    4.0070 C.2       6 UNK         0.5070 
     43 O          29.3308   28.7529    3.6835 O.2       6 UNK        -0.5237 
     44 N          30.2070   27.1958    5.1140 N.am      7 UNK        -0.4739 
     45 CA         30.8344   28.0256    6.1518 C.3       7 UNK         0.0276 
     46 CB         29.7964   28.9165    6.8649 C.3       7 UNK        -0.1927 
     47 C          32.0149   28.8596    5.6243 C.2       7 UNK         0.5013 
     48 O          31.8072   29.8467    4.9199 O.2       7 UNK        -0.5193 
     49 N          33.2415   28.4976    6.0281 N.am      8 UNK        -0.4253 
     50 CA         34.4886   29.1827    5.6529 C.3       8 UNK         0.0242 
     51 CB         35.6811   28.4821    6.3224 C.3       8 UNK        -0.2000 
     52 C          34.5088   30.6940    5.9582 C.2       8 UNK         0.4948 
     53 O          35.0950   31.4582    5.1912 O.2       8 UNK        -0.5275 
     54 N          33.8256   31.1000    7.0378 N.am      9 UNK        -0.4246 
     55 CA         33.6124   32.4981    7.4184 C.3       9 UNK         0.0261 
     56 CB         33.0402   32.5501    8.8445 C.3       9 UNK        -0.1959 
     57 C          32.7044   33.2791    6.4475 C.2       9 UNK         0.5033 
     58 O          32.8406   34.5008    6.3660 O.2       9 UNK        -0.5390 
     59 N          31.8028   32.5838    5.7384 N.am      10 UNK        -0.4215 
     60 CA         30.9508   33.1596    4.6969 C.3       10 UNK         0.0240 
     61 CB         29.6034   32.4208    4.6511 C.3       10 UNK        -0.1982 
     62 C          31.6496   33.1137    3.3300 C.2       10 UNK         0.4970 
     63 O          31.5268   34.0738    2.5682 O.2       10 UNK        -0.4916 
     64 N          32.3790   32.0227    3.0506 N.am      11 UNK        -0.4279 
     65 CA         33.2272   31.8697    1.8577 C.3       11 UNK         0.1003 
     66 C          34.3652   32.9254    1.7738 C.2       11 UNK         0.5709 
     67 N          35.0758   33.1966    2.8622 N.am      11 UNK        -0.7358 
     68 O          34.6027   33.5003    0.7141 O.2       11 UNK        -0.4999 
     69 C69        33.8252   30.4459    1.7335 C.3       12 UNK        -0.0954 
     70 S70        32.5797   29.1227    1.6159 S.3       12 UNK        -0.2268 
     71 C71        33.6918   27.6875    1.6969 C.3       12 UNK         0.0203 
     72 H72        28.0037   17.7282   -0.4123 H         1 UNK         0.0888 
     73 H73        29.2472   17.8475    0.8342 H         1 UNK         0.0888 
     74 H74        29.6747   18.0813   -0.8617 H         1 UNK         0.0888 
     75 H75        29.1132   19.7749    1.9669 H         1 UNK         0.3017 
     76 H76        28.9759   22.3371    0.6815 H         1 UNK         0.0873 
     77 H77        28.6747   21.7208    3.6730 H         1 UNK         0.0745 
     78 H78        29.0738   23.2594    2.9557 H         1 UNK         0.0745 
     79 H79        31.1500   23.8593    4.0998 H         1 UNK         0.0705 
     80 H80        32.7043   23.1190    3.8323 H         1 UNK         0.0705 
     81 H81        32.9069   25.7585    3.4580 H         1 UNK         0.1334 
     82 H82        32.8832   26.7379   -0.7087 H         1 UNK         0.1417 
     83 H83        31.2282   23.0197    0.6066 H         1 UNK         0.1562 
     84 H84        30.9511   23.6208   -1.6599 H         1 UNK         0.0748 
     85 H85        32.5276   24.1854   -2.1570 H         1 UNK         0.0748 
     86 H86        28.8045   24.8540   -1.7096 H         1 UNK         0.0940 
     87 H87        28.5171   26.2003   -2.7434 H         1 UNK         0.0940 
     88 H88        29.8159   27.5196   -0.6751 H         1 UNK         0.0703 
     89 H89        26.8946   27.0958   -1.0205 H         1 UNK         0.3081 
     90 H90        26.1064   30.2563    0.1831 H         1 UNK         0.0719 
     91 H91        26.2737   29.8169   -2.8494 H         1 UNK         0.0809 
     92 H92        25.2115   30.9622   -2.0281 H         1 UNK         0.0809 
     93 H93        26.9517   31.1822   -1.9742 H         1 UNK         0.0809 
     94 H94        24.6930   28.4319   -1.5582 H         1 UNK         0.2990 
     95 H95        22.7585   27.2324    0.8525 H         1 UNK         0.0690 
     96 H96        22.1832   26.1773   -1.3182 H         1 UNK         0.0788 
     97 H97        23.7663   26.5646   -1.9728 H         1 UNK         0.0788 
     98 H98        22.6312   27.8517   -1.5578 H         1 UNK         0.0788 
     99 H99        23.3646   25.1540    1.3122 H         1 UNK         0.2993 
    100 H100       24.7070   23.4245    1.7483 H         1 UNK         0.0949 
    101 H101       23.3692   22.7828   -0.3187 H         1 UNK         0.0767 
    102 H102       24.8709   22.4329   -1.1644 H         1 UNK         0.0767 
    103 H103       24.3880   21.4656    0.2270 H         1 UNK         0.0767 
    104 H104       27.2295   23.7502    0.4899 H         1 UNK         0.3013 
    105 H105       29.1671   27.9194    1.6342 H         1 UNK         0.3121 
    106 H106       29.6854   25.6005    3.2010 H         1 UNK         0.0774 
    107 H107       27.2180   25.2146    2.9682 H         1 UNK         0.0815 
    108 H108       26.8941   26.8772    3.4494 H         1 UNK         0.0815 
    109 H109       27.5796   25.7395    4.6026 H         1 UNK         0.0815 
    110 H110       30.3094   26.2013    5.2593 H         1 UNK         0.2987 
    111 H111       31.2224   27.3300    6.8979 H         1 UNK         0.0949 
    112 H112       29.3532   29.6501    6.1910 H         1 UNK         0.0806 
    113 H113       28.9872   28.3212    7.2876 H         1 UNK         0.0806 
    114 H114       30.2551   29.4700    7.6851 H         1 UNK         0.0806 
    115 H115       33.3386   27.6857    6.6212 H         1 UNK         0.3010 
    116 H116       34.5987   29.0744    4.5738 H         1 UNK         0.0829 
    117 H117       35.7494   27.4369    6.0203 H         1 UNK         0.0813 
    118 H118       36.6214   28.9592    6.0416 H         1 UNK         0.0813 
    119 H119       35.6114   28.5151    7.4104 H         1 UNK         0.0813 
    120 H120       33.3828   30.3983    7.6129 H         1 UNK         0.3038 
    121 H121       34.5855   32.9942    7.4226 H         1 UNK         0.0769 
    122 H122       32.0719   32.0522    8.9104 H         1 UNK         0.0811 
    123 H123       32.8983   33.5817    9.1701 H         1 UNK         0.0811 
    124 H124       33.7125   32.0769    9.5605 H         1 UNK         0.0811 
    125 H125       31.8011   31.5697    5.7958 H         1 UNK         0.3204 
    126 H126       30.7457   34.2058    4.9345 H         1 UNK         0.0748 
    127 H127       29.1031   32.4452    5.6192 H         1 UNK         0.0771 
    128 H128       28.9325   32.8830    3.9260 H         1 UNK         0.0771 
    129 H129       29.7209   31.3765    4.3605 H         1 UNK         0.0771 
    130 H130       32.3548   31.2362    3.6928 H         1 UNK         0.2980 
    131 H131       32.5820   32.0305    0.9919 H         1 UNK         0.0545 
    132 H132       35.8113   33.8827    2.8123 H         1 UNK         0.3459 
    133 H133       34.9387   32.6645    3.7174 H         1 UNK         0.3459 
    134 H134       34.4519   30.3783    0.8419 H         1 UNK         0.0616 
    135 H135       34.4790   30.2383    2.5812 H         1 UNK         0.0616 
    136 H136       34.1599   27.6519    2.6813 H         1 UNK         0.0634 
    137 H137       34.5001   27.8147    0.9751 H         1 UNK         0.0634 
@<TRIPOS>BOND
     1    1    2 1    
     2    1   72 1    
     3    1   73 1    
     4    1   74 1    
     5    2    3 2    
     6    2    4 am   BACKBONE|DICT|INTERRES
     7    4    5 1    
     8    4   75 1    
     9    5    6 1    
    10    5   35 1    
    11    5   76 1    
    12    6    7 1    
    13    6   77 1    
    14    6   78 1    
    15    7    8 1    
    16    8    9 1    
    17    8   79 1    
    18    8   80 1    
    19    9   10 ar   
    20    9   14 ar   
    21   10   11 ar   
    22   10   81 1    
    23   11   12 ar   
    24   11   71 1    
    25   12   13 ar   
    26   12   82 1    
    27   13   14 ar   
    28   13   15 1    
    29   14   83 1    
    30   15   16 1    
    31   15   84 1    
    32   15   85 1    
    33   16   17 1    
    34   17   18 1    
    35   17   86 1    
    36   17   87 1    
    37   18   19 1    
    38   18   37 1    
    39   18   88 1    
    40   19   20 am   BACKBONE|DICT|INTERRES
    41   19   89 1    
    42   20   21 2    
    43   20   22 1    
    44   22   23 1    
    45   22   24 1    
    46   22   90 1    
    47   23   91 1    
    48   23   92 1    
    49   23   93 1    
    50   24   25 am   BACKBONE|DICT|INTERRES
    51   24   94 1    
    52   25   26 2    
    53   25   27 1    
    54   27   28 1    
    55   27   29 1    
    56   27   95 1    
    57   28   96 1    
    58   28   97 1    
    59   28   98 1    
    60   29   30 am   BACKBONE|DICT|INTERRES
    61   29   99 1    
    62   30   31 2    
    63   30   32 1    
    64   32   33 1    
    65   32   34 1    
    66   32  100 1    
    67   33  101 1    
    68   33  102 1    
    69   33  103 1    
    70   34   35 am   BACKBONE|DICT|INTERRES
    71   34  104 1    
    72   35   36 2    
    73   37   38 2    
    74   37   39 am   BACKBONE|DICT|INTERRES
    75   39   40 1    
    76   39  105 1    
    77   40   41 1    
    78   40   42 1    
    79   40  106 1    
    80   41  107 1    
    81   41  108 1    
    82   41  109 1    
    83   42   43 2    
    84   42   44 am   BACKBONE|DICT|INTERRES
    85   44   45 1    
    86   44  110 1    
    87   45   46 1    
    88   45   47 1    
    89   45  111 1    
    90   46  112 1    
    91   46  113 1    
    92   46  114 1    
    93   47   48 2    
    94   47   49 am   BACKBONE|DICT|INTERRES
    95   49   50 1    
    96   49  115 1    
    97   50   51 1    
    98   50   52 1    
    99   50  116 1    
   100   51  117 1    
   101   51  118 1    
   102   51  119 1    
   103   52   53 2    
   104   52   54 am   BACKBONE|DICT|INTERRES
   105   54   55 1    
   106   54  120 1    
   107   55   56 1    
   108   55   57 1    
   109   55  121 1    
   110   56  122 1    
   111   56  123 1    
   112   56  124 1    
   113   57   58 2    
   114   57   59 am   BACKBONE|DICT|INTERRES
   115   59   60 1    
   116   59  125 1    
   117   60   61 1    
   118   60   62 1    
   119   60  126 1    
   120   61  127 1    
   121   61  128 1    
   122   61  129 1    
   123   62   63 2    
   124   62   64 am   BACKBONE|DICT|INTERRES
   125   64   65 1    
   126   64  130 1    
   127   65   66 1    
   128   65   69 1    
   129   65  131 1    
   130   66   67 am   BACKBONE|DICT|INTERRES
   131   66   68 2    
   132   67  132 1    
   133   67  133 1    
   134   69   70 1    
   135   69  134 1    
   136   69  135 1    
   137   70   71 1    
   138   71  136 1    
   139   71  137 1    
@<TRIPOS>SUBSTRUCTURE
     1 UNK         1 GROUP             0       ****    0 ROOT    
