@<TRIPOS>MOLECULE
3R136
137   139    1
SMALL
USER_CHARGES


@<TRIPOS>ATOM
      1 CA         29.1948   22.7702    3.9039 C.3       0 UNK        -0.1979 
      2 C          29.6008   22.5011    2.4631 C.2       0 UNK         0.4864 
      3 O          29.6102   21.3452    2.0360 O.2       0 UNK        -0.5359 
      4 N          29.9337   23.5590    1.7129 N.am      1 UNK        -0.4318 
      5 CA         30.2215   23.5136    0.2764 C.3       1 UNK         0.0824 
      6 C6         31.0845   24.7244   -0.1712 C.3       12 UNK        -0.0944 
      7 S7         30.3096   26.3595    0.0997 S.3       12 UNK        -0.2672 
      8 C8         31.4810   27.1417    1.2543 C.3       12 UNK         0.0333 
      9 C9         31.3187   26.5923    2.6625 C.ar      12 UNK        -0.0807 
     10 C10        32.1767   25.6029    3.1513 C.ar      12 UNK        -0.0894 
     11 C11        31.9956   25.0797    4.4360 C.ar      12 UNK        -0.0804 
     12 C12        30.9434   25.5497    5.2291 C.ar      12 UNK        -0.0824 
     13 C13        30.0901   26.5510    4.7548 C.ar      12 UNK        -0.0762 
     14 C14        30.2951   27.0779    3.4773 C.ar      12 UNK        -0.0782 
     15 C15        28.9486   27.0646    5.6184 C.3       12 UNK         0.0230 
     16 S16        27.3752   26.2618    5.1674 S.3       12 UNK        -0.2608 
     17 C17        26.3549   27.6858    4.6477 C.3       12 UNK        -0.0989 
     18 CA         26.4871   28.0032    3.1314 C.3       5 UNK         0.0716 
     19 N          26.1802   26.8721    2.2499 N.am      5 UNK        -0.4135 
     20 C          25.0062   26.2387    2.1288 C.2       4 UNK         0.5031 
     21 O          23.9983   26.5221    2.7788 O.2       4 UNK        -0.5229 
     22 CA         24.9600   25.1190    1.0689 C.3       4 UNK         0.0329 
     23 CB         23.5203   24.7212    0.6802 C.3       4 UNK        -0.2001 
     24 N          25.7517   25.4261   -0.1324 N.am      4 UNK        -0.4303 
     25 C          25.6032   26.4839   -0.9485 C.2       3 UNK         0.5044 
     26 O          24.7836   27.3782   -0.7452 O.2       3 UNK        -0.5152 
     27 CA         26.5416   26.6159   -2.1656 C.3       3 UNK         0.0319 
     28 CB         27.4217   27.8696   -2.0264 C.3       3 UNK        -0.2001 
     29 N          27.4018   25.4495   -2.3778 N.am      3 UNK        -0.4354 
     30 C          26.9936   24.2775   -2.8866 C.2       2 UNK         0.4964 
     31 O          25.8633   24.0876   -3.3365 O.2       2 UNK        -0.5047 
     32 CA         27.9968   23.1051   -2.8653 C.3       2 UNK         0.0288 
     33 CB         28.6068   22.8982   -4.2616 C.3       2 UNK        -0.2113 
     34 N          29.0833   23.2293   -1.8825 N.am      2 UNK        -0.4145 
     35 C          28.9269   23.3696   -0.5569 C.2       1 UNK         0.5006 
     36 O          27.8205   23.4328   -0.0124 O.2       1 UNK        -0.5103 
     37 C          25.7900   29.3227    2.7249 C.2       5 UNK         0.5055 
     38 O          25.7750   30.2603    3.5248 O.2       5 UNK        -0.5220 
     39 N          25.2849   29.4227    1.4825 N.am      6 UNK        -0.4450 
     40 CA         24.8589   30.6954    0.8853 C.3       6 UNK         0.0367 
     41 CB         23.9548   30.4301   -0.3285 C.3       6 UNK        -0.1929 
     42 C          26.0572   31.5752    0.4783 C.2       6 UNK         0.5070 
     43 O          25.9086   32.7948    0.3955 O.2       6 UNK        -0.5237 
     44 N          27.2164   30.9458    0.2462 N.am      7 UNK        -0.4739 
     45 CA         28.5069   31.5920    0.0255 C.3       7 UNK         0.0276 
     46 CB         29.1620   30.9916   -1.2295 C.3       7 UNK        -0.1927 
     47 C          29.3961   31.3482    1.2522 C.2       7 UNK         0.5013 
     48 O          29.2949   30.2898    1.8803 O.2       7 UNK        -0.5193 
     49 N          30.2612   32.3228    1.5519 N.am      8 UNK        -0.4253 
     50 CA         31.2675   32.2450    2.6112 C.3       8 UNK         0.0242 
     51 CB         31.5977   33.6715    3.0840 C.3       8 UNK        -0.2000 
     52 C          32.5382   31.5329    2.1180 C.2       8 UNK         0.4948 
     53 O          32.7754   31.4519    0.9097 O.2       8 UNK        -0.5275 
     54 N          33.3516   31.0678    3.0696 N.am      9 UNK        -0.4246 
     55 CA         34.6386   30.4126    2.8568 C.3       9 UNK         0.0261 
     56 CB         34.4175   28.9467    2.4306 C.3       9 UNK        -0.1959 
     57 C          35.4507   30.5042    4.1554 C.2       9 UNK         0.5033 
     58 O          34.9176   30.9350    5.1818 O.2       9 UNK        -0.5390 
     59 N          36.7148   30.0621    4.0994 N.am      10 UNK        -0.4215 
     60 CA         37.6167   29.9434    5.2547 C.3       10 UNK         0.0240 
     61 CB         39.0558   29.7495    4.7472 C.3       10 UNK        -0.1982 
     62 C          37.2319   28.8148    6.2364 C.2       10 UNK         0.4970 
     63 O          37.7677   28.7748    7.3446 O.2       10 UNK        -0.4916 
     64 N          36.3281   27.9246    5.8069 N.am      11 UNK        -0.4279 
     65 CA         35.6895   26.8520    6.5786 C.3       11 UNK         0.1003 
     66 C          35.0291   27.3678    7.8913 C.2       11 UNK         0.5709 
     67 N          35.2831   26.7153    9.0179 N.am      11 UNK        -0.7358 
     68 O          34.2683   28.3336    7.8869 O.2       11 UNK        -0.4999 
     69 C69        34.6680   26.1319    5.6611 C.3       12 UNK        -0.0954 
     70 S70        33.9551   24.6077    6.3641 S.3       12 UNK        -0.2268 
     71 C71        32.9443   24.0123    4.9679 C.3       12 UNK         0.0203 
     72 H72        28.3062   22.1939    4.1596 H         1 UNK         0.0888 
     73 H73        29.9966   22.4831    4.5830 H         1 UNK         0.0888 
     74 H74        28.9655   23.8228    4.0654 H         1 UNK         0.0888 
     75 H75        29.9117   24.4858    2.1158 H         1 UNK         0.3017 
     76 H76        30.8076   22.6116    0.0869 H         1 UNK         0.0873 
     77 H77        31.3439   24.6478   -1.2281 H         1 UNK         0.0745 
     78 H78        32.0421   24.6871    0.3487 H         1 UNK         0.0745 
     79 H79        32.5009   27.0007    0.8944 H         1 UNK         0.0705 
     80 H80        31.3047   28.2190    1.2597 H         1 UNK         0.0705 
     81 H81        32.9833   25.2375    2.5309 H         1 UNK         0.1334 
     82 H82        30.7979   25.1411    6.2199 H         1 UNK         0.1417 
     83 H83        29.6555   27.8633    3.1042 H         1 UNK         0.1562 
     84 H84        28.8779   28.1485    5.5189 H         1 UNK         0.0748 
     85 H85        29.1528   26.8712    6.6726 H         1 UNK         0.0748 
     86 H86        26.6270   28.5492    5.2573 H         1 UNK         0.0940 
     87 H87        25.3155   27.4701    4.8996 H         1 UNK         0.0940 
     88 H88        27.5375   28.2160    2.9474 H         1 UNK         0.0703 
     89 H89        26.9430   26.5511    1.6717 H         1 UNK         0.3081 
     90 H90        25.4308   24.2486    1.5286 H         1 UNK         0.0719 
     91 H91        22.9685   25.5621    0.2586 H         1 UNK         0.0809 
     92 H92        23.5169   23.9157   -0.0542 H         1 UNK         0.0809 
     93 H93        22.9629   24.3688    1.5489 H         1 UNK         0.0809 
     94 H94        26.4884   24.7545   -0.3361 H         1 UNK         0.2990 
     95 H95        25.9096   26.7423   -3.0471 H         1 UNK         0.0690 
     96 H96        28.0877   27.9875   -2.8814 H         1 UNK         0.0788 
     97 H97        28.0336   27.8345   -1.1252 H         1 UNK         0.0788 
     98 H98        26.8114   28.7721   -1.9696 H         1 UNK         0.0788 
     99 H99        28.3492   25.5188   -2.0344 H         1 UNK         0.2993 
    100 H100       27.4275   22.2104   -2.6043 H         1 UNK         0.0949 
    101 H101       29.2324   22.0059   -4.2946 H         1 UNK         0.0767 
    102 H102       27.8274   22.7711   -5.0145 H         1 UNK         0.0767 
    103 H103       29.2171   23.7499   -4.5652 H         1 UNK         0.0767 
    104 H104       30.0211   23.1928   -2.2554 H         1 UNK         0.3013 
    105 H105       25.2557   28.6076    0.8786 H         1 UNK         0.3121 
    106 H106       24.2750   31.2478    1.6248 H         1 UNK         0.0774 
    107 H107       23.5341   31.3619   -0.7085 H         1 UNK         0.0815 
    108 H108       24.5038   29.9668   -1.1489 H         1 UNK         0.0815 
    109 H109       23.1204   29.7776   -0.0707 H         1 UNK         0.0815 
    110 H110       27.2569   29.9522    0.4174 H         1 UNK         0.2987 
    111 H111       28.3781   32.6669   -0.1200 H         1 UNK         0.0949 
    112 H112       29.3847   29.9315   -1.1026 H         1 UNK         0.0806 
    113 H113       28.5198   31.0986   -2.1039 H         1 UNK         0.0806 
    114 H114       30.1040   31.4937   -1.4543 H         1 UNK         0.0806 
    115 H115       30.3156   33.1283    0.9455 H         1 UNK         0.3010 
    116 H116       30.8584   31.6816    3.4533 H         1 UNK         0.0829 
    117 H117       30.7066   34.1856    3.4451 H         1 UNK         0.0813 
    118 H118       32.3153   33.6587    3.9055 H         1 UNK         0.0813 
    119 H119       32.0309   34.2729    2.2836 H         1 UNK         0.0813 
    120 H120       33.1409   31.2299    4.0481 H         1 UNK         0.3038 
    121 H121       35.1874   30.9458    2.0776 H         1 UNK         0.0769 
    122 H122       35.3605   28.4177    2.2906 H         1 UNK         0.0811 
    123 H123       33.8861   28.8951    1.4811 H         1 UNK         0.0811 
    124 H124       33.8352   28.3952    3.1702 H         1 UNK         0.0811 
    125 H125       37.0791   29.7450    3.2116 H         1 UNK         0.3204 
    126 H126       37.5754   30.8808    5.8137 H         1 UNK         0.0748 
    127 H127       39.7606   29.6982    5.5785 H         1 UNK         0.0771 
    128 H128       39.1618   28.8277    4.1736 H         1 UNK         0.0771 
    129 H129       39.3688   30.5793    4.1129 H         1 UNK         0.0771 
    130 H130       35.9574   28.0634    4.8811 H         1 UNK         0.2980 
    131 H131       36.4776   26.1435    6.8398 H         1 UNK         0.0545 
    132 H132       35.8910   25.9113    9.0271 H         1 UNK         0.3459 
    133 H133       34.8543   27.0299    9.8739 H         1 UNK         0.3459 
    134 H134       33.8556   26.8152    5.4063 H         1 UNK         0.0616 
    135 H135       35.1434   25.8590    4.7173 H         1 UNK         0.0616 
    136 H136       32.3674   23.1462    5.2941 H         1 UNK         0.0634 
    137 H137       33.6099   23.6583    4.1792 H         1 UNK         0.0634 
@<TRIPOS>BOND
     1    1    2 1    
     2    1   72 1    
     3    1   73 1    
     4    1   74 1    
     5    2    3 2    
     6    2    4 am   BACKBONE|DICT|INTERRES
     7    4    5 1    
     8    4   75 1    
     9    5    6 1    
    10    5   35 1    
    11    5   76 1    
    12    6    7 1    
    13    6   77 1    
    14    6   78 1    
    15    7    8 1    
    16    8    9 1    
    17    8   79 1    
    18    8   80 1    
    19    9   10 ar   
    20    9   14 ar   
    21   10   11 ar   
    22   10   81 1    
    23   11   12 ar   
    24   11   71 1    
    25   12   13 ar   
    26   12   82 1    
    27   13   14 ar   
    28   13   15 1    
    29   14   83 1    
    30   15   16 1    
    31   15   84 1    
    32   15   85 1    
    33   16   17 1    
    34   17   18 1    
    35   17   86 1    
    36   17   87 1    
    37   18   19 1    
    38   18   37 1    
    39   18   88 1    
    40   19   20 am   BACKBONE|DICT|INTERRES
    41   19   89 1    
    42   20   21 2    
    43   20   22 1    
    44   22   23 1    
    45   22   24 1    
    46   22   90 1    
    47   23   91 1    
    48   23   92 1    
    49   23   93 1    
    50   24   25 am   BACKBONE|DICT|INTERRES
    51   24   94 1    
    52   25   26 2    
    53   25   27 1    
    54   27   28 1    
    55   27   29 1    
    56   27   95 1    
    57   28   96 1    
    58   28   97 1    
    59   28   98 1    
    60   29   30 am   BACKBONE|DICT|INTERRES
    61   29   99 1    
    62   30   31 2    
    63   30   32 1    
    64   32   33 1    
    65   32   34 1    
    66   32  100 1    
    67   33  101 1    
    68   33  102 1    
    69   33  103 1    
    70   34   35 am   BACKBONE|DICT|INTERRES
    71   34  104 1    
    72   35   36 2    
    73   37   38 2    
    74   37   39 am   BACKBONE|DICT|INTERRES
    75   39   40 1    
    76   39  105 1    
    77   40   41 1    
    78   40   42 1    
    79   40  106 1    
    80   41  107 1    
    81   41  108 1    
    82   41  109 1    
    83   42   43 2    
    84   42   44 am   BACKBONE|DICT|INTERRES
    85   44   45 1    
    86   44  110 1    
    87   45   46 1    
    88   45   47 1    
    89   45  111 1    
    90   46  112 1    
    91   46  113 1    
    92   46  114 1    
    93   47   48 2    
    94   47   49 am   BACKBONE|DICT|INTERRES
    95   49   50 1    
    96   49  115 1    
    97   50   51 1    
    98   50   52 1    
    99   50  116 1    
   100   51  117 1    
   101   51  118 1    
   102   51  119 1    
   103   52   53 2    
   104   52   54 am   BACKBONE|DICT|INTERRES
   105   54   55 1    
   106   54  120 1    
   107   55   56 1    
   108   55   57 1    
   109   55  121 1    
   110   56  122 1    
   111   56  123 1    
   112   56  124 1    
   113   57   58 2    
   114   57   59 am   BACKBONE|DICT|INTERRES
   115   59   60 1    
   116   59  125 1    
   117   60   61 1    
   118   60   62 1    
   119   60  126 1    
   120   61  127 1    
   121   61  128 1    
   122   61  129 1    
   123   62   63 2    
   124   62   64 am   BACKBONE|DICT|INTERRES
   125   64   65 1    
   126   64  130 1    
   127   65   66 1    
   128   65   69 1    
   129   65  131 1    
   130   66   67 am   BACKBONE|DICT|INTERRES
   131   66   68 2    
   132   67  132 1    
   133   67  133 1    
   134   69   70 1    
   135   69  134 1    
   136   69  135 1    
   137   70   71 1    
   138   71  136 1    
   139   71  137 1    
@<TRIPOS>SUBSTRUCTURE
     1 UNK         1 GROUP             0       ****    0 ROOT    
