@<TRIPOS>MOLECULE
3R136
137   139    1
SMALL
USER_CHARGES


@<TRIPOS>ATOM
      1 CA         30.2490   27.3172   -1.9087 C.3       0 UNK        -0.1979 
      2 C          30.5406   25.8912   -1.4664 C.2       0 UNK         0.4864 
      3 O          31.1135   25.1170   -2.2345 O.2       0 UNK        -0.5359 
      4 N          30.1234   25.5361   -0.2435 N.am      1 UNK        -0.4318 
      5 CA         30.2608   24.2366    0.4359 C.3       1 UNK         0.0824 
      6 C6         31.7202   23.7465    0.6319 C.3       12 UNK        -0.0944 
      7 S7         32.7824   24.9351    1.5168 S.3       12 UNK        -0.2672 
      8 C8         32.6154   24.3768    3.2406 C.3       12 UNK         0.0333 
      9 C9         31.3892   24.9776    3.9112 C.ar      12 UNK        -0.0807 
     10 C10        31.4386   26.2834    4.4058 C.ar      12 UNK        -0.0894 
     11 C11        30.3388   26.8401    5.0614 C.ar      12 UNK        -0.0804 
     12 C12        29.1730   26.0838    5.2044 C.ar      12 UNK        -0.0824 
     13 C13        29.0927   24.7905    4.6766 C.ar      12 UNK        -0.0762 
     14 C14        30.2128   24.2344    4.0504 C.ar      12 UNK        -0.0782 
     15 C15        27.7997   23.9919    4.7824 C.3       12 UNK         0.0230 
     16 S16        26.6794   24.3139    3.3765 S.3       12 UNK        -0.2608 
     17 C17        26.0748   25.9908    3.7656 C.3       12 UNK        -0.0989 
     18 CA         26.7071   27.0585    2.8247 C.3       5 UNK         0.0716 
     19 N          26.0782   27.0923    1.4942 N.am      5 UNK        -0.4135 
     20 C          24.8411   27.5210    1.2045 C.2       4 UNK         0.5031 
     21 O          24.0194   27.8749    2.0509 O.2       4 UNK        -0.5229 
     22 CA         24.4514   27.6076   -0.2818 C.3       4 UNK         0.0329 
     23 CB         25.0910   28.8444   -0.9458 C.3       4 UNK        -0.2001 
     24 N          24.6905   26.3904   -1.0696 N.am      4 UNK        -0.4303 
     25 C          25.8544   25.8129   -1.3928 C.2       3 UNK         0.5044 
     26 O          26.9612   26.2085   -1.0091 O.2       3 UNK        -0.5152 
     27 CA         25.7555   24.5953   -2.3197 C.3       3 UNK         0.0319 
     28 CB         25.4452   25.0194   -3.7671 C.3       3 UNK        -0.2001 
     29 N          27.0256   23.8863   -2.2798 N.am      3 UNK        -0.4354 
     30 C          27.2166   22.5794   -2.4901 C.2       2 UNK         0.4964 
     31 O          26.3211   21.7992   -2.8159 O.2       2 UNK        -0.5047 
     32 CA         28.6507   22.0478   -2.3060 C.3       2 UNK         0.0288 
     33 CB         29.3201   21.8174   -3.6707 C.3       2 UNK        -0.2113 
     34 N          29.4903   22.9475   -1.5106 N.am      2 UNK        -0.4145 
     35 C          29.3939   23.1246   -0.1871 C.2       1 UNK         0.5006 
     36 O          28.6457   22.4637    0.5339 O.2       1 UNK        -0.5103 
     37 C          26.8005   28.4714    3.4555 C.2       5 UNK         0.5055 
     38 O          26.6482   28.6282    4.6689 O.2       5 UNK        -0.5220 
     39 N          27.0523   29.4823    2.6118 N.am      6 UNK        -0.4450 
     40 CA         27.2629   30.8719    3.0134 C.3       6 UNK         0.0367 
     41 CB         27.0634   31.7779    1.7871 C.3       6 UNK        -0.1929 
     42 C          28.6723   31.0628    3.5901 C.2       6 UNK         0.5070 
     43 O          29.6013   30.3713    3.1713 O.2       6 UNK        -0.5237 
     44 N          28.8279   32.0469    4.4850 N.am      7 UNK        -0.4739 
     45 CA         30.0875   32.3879    5.1652 C.3       7 UNK         0.0276 
     46 CB         29.8007   33.4496    6.2398 C.3       7 UNK        -0.1927 
     47 C          31.2336   32.8491    4.2393 C.2       7 UNK         0.5013 
     48 O          32.3775   32.9125    4.6890 O.2       7 UNK        -0.5193 
     49 N          30.9155   33.1526    2.9731 N.am      8 UNK        -0.4253 
     50 CA         31.8739   33.4202    1.8990 C.3       8 UNK         0.0242 
     51 CB         31.1341   34.0904    0.7291 C.3       8 UNK        -0.2000 
     52 C          32.6214   32.1605    1.4131 C.2       8 UNK         0.4948 
     53 O          33.6638   32.3028    0.7712 O.2       8 UNK        -0.5275 
     54 N          32.0884   30.9634    1.7038 N.am      9 UNK        -0.4246 
     55 CA         32.7254   29.6728    1.4308 C.3       9 UNK         0.0261 
     56 CB         31.6353   28.5869    1.4136 C.3       9 UNK        -0.1959 
     57 C          33.8313   29.3586    2.4601 C.2       9 UNK         0.5033 
     58 O          34.0689   30.1452    3.3811 O.2       9 UNK        -0.5390 
     59 N          34.4932   28.2029    2.3038 N.am      10 UNK        -0.4215 
     60 CA         35.6047   27.7267    3.1419 C.3       10 UNK         0.0240 
     61 CB         36.3632   26.6251    2.3772 C.3       10 UNK        -0.1982 
     62 C          35.1609   27.2695    4.5502 C.2       10 UNK         0.4970 
     63 O          35.4025   26.1258    4.9381 O.2       10 UNK        -0.4916 
     64 N          34.4938   28.1704    5.2773 N.am      11 UNK        -0.4279 
     65 CA         33.8835   27.9525    6.5969 C.3       11 UNK         0.1003 
     66 C          34.8869   27.8030    7.7784 C.2       11 UNK         0.5709 
     67 N          36.1701   28.0969    7.6045 N.am      11 UNK        -0.7358 
     68 O          34.4937   27.4069    8.8730 O.2       11 UNK        -0.4999 
     69 C69        32.7983   29.0360    6.8771 C.3       12 UNK        -0.0954 
     70 S70        31.1580   28.3310    7.2493 S.3       12 UNK        -0.2268 
     71 C71        30.3978   28.2631    5.5958 C.3       12 UNK         0.0203 
     72 H72        29.8098   27.3181   -2.9059 H         1 UNK         0.0888 
     73 H73        29.5504   27.8161   -1.2370 H         1 UNK         0.0888 
     74 H74        31.1710   27.8970   -1.9393 H         1 UNK         0.0888 
     75 H75        29.6248   26.2264    0.2985 H         1 UNK         0.3017 
     76 H76        29.8375   24.4097    1.4237 H         1 UNK         0.0873 
     77 H77        31.7355   22.7963    1.1689 H         1 UNK         0.0745 
     78 H78        32.1876   23.5444   -0.3332 H         1 UNK         0.0745 
     79 H79        33.5075   24.6765    3.7900 H         1 UNK         0.0705 
     80 H80        32.5925   23.2872    3.2869 H         1 UNK         0.0705 
     81 H81        32.3363   26.8679    4.2795 H         1 UNK         0.1334 
     82 H82        28.3225   26.5156    5.7128 H         1 UNK         0.1417 
     83 H83        30.1627   23.2280    3.6567 H         1 UNK         0.1562 
     84 H84        27.2909   24.2117    5.7223 H         1 UNK         0.0748 
     85 H85        28.0260   22.9249    4.8078 H         1 UNK         0.0748 
     86 H86        26.2778   26.1879    4.8175 H         1 UNK         0.0940 
     87 H87        24.9869   25.9972    3.6890 H         1 UNK         0.0940 
     88 H88        27.7480   26.7783    2.6541 H         1 UNK         0.0703 
     89 H89        26.6487   26.7879    0.7081 H         1 UNK         0.3081 
     90 H90        23.3704   27.7565   -0.3060 H         1 UNK         0.0719 
     91 H91        24.7304   28.9749   -1.9661 H         1 UNK         0.0809 
     92 H92        26.1786   28.7776   -0.9835 H         1 UNK         0.0809 
     93 H93        24.8418   29.7537   -0.3969 H         1 UNK         0.0809 
     94 H94        23.8498   25.9512   -1.4195 H         1 UNK         0.2990 
     95 H95        24.9640   23.9421   -1.9459 H         1 UNK         0.0690 
     96 H96        25.3759   24.1547   -4.4275 H         1 UNK         0.0788 
     97 H97        26.2153   25.6819   -4.1647 H         1 UNK         0.0788 
     98 H98        24.4938   25.5487   -3.8302 H         1 UNK         0.0788 
     99 H99        27.7998   24.4546   -1.9607 H         1 UNK         0.2993 
    100 H100       28.5809   21.0893   -1.7870 H         1 UNK         0.0949 
    101 H101       29.4258   22.7482   -4.2298 H         1 UNK         0.0767 
    102 H102       30.3123   21.3800   -3.5565 H         1 UNK         0.0767 
    103 H103       28.7331   21.1320   -4.2838 H         1 UNK         0.0767 
    104 H104       30.1320   23.5597   -2.0121 H         1 UNK         0.3013 
    105 H105       27.2123   29.2664    1.6398 H         1 UNK         0.3121 
    106 H106       26.5256   31.1360    3.7749 H         1 UNK         0.0774 
    107 H107       27.1718   32.8299    2.0541 H         1 UNK         0.0815 
    108 H108       27.7905   31.5641    1.0022 H         1 UNK         0.0815 
    109 H109       26.0666   31.6560    1.3626 H         1 UNK         0.0815 
    110 H110       28.0171   32.5878    4.7523 H         1 UNK         0.2987 
    111 H111       30.4409   31.4837    5.6661 H         1 UNK         0.0949 
    112 H112       29.0698   33.0934    6.9661 H         1 UNK         0.0806 
    113 H113       30.7062   33.7006    6.7944 H         1 UNK         0.0806 
    114 H114       29.4203   34.3735    5.8025 H         1 UNK         0.0806 
    115 H115       29.9448   33.0801    2.7079 H         1 UNK         0.3010 
    116 H116       32.6243   34.1178    2.2772 H         1 UNK         0.0829 
    117 H117       30.6589   35.0211    1.0399 H         1 UNK         0.0813 
    118 H118       31.8242   34.3359   -0.0795 H         1 UNK         0.0813 
    119 H119       30.3633   33.4404    0.3129 H         1 UNK         0.0813 
    120 H120       31.2396   30.9242    2.2614 H         1 UNK         0.3038 
    121 H121       33.1871   29.7163    0.4422 H         1 UNK         0.0769 
    122 H122       30.7921   28.8818    0.7891 H         1 UNK         0.0811 
    123 H123       31.2490   28.3839    2.4124 H         1 UNK         0.0811 
    124 H124       32.0167   27.6511    1.0096 H         1 UNK         0.0811 
    125 H125       34.2112   27.5856    1.5552 H         1 UNK         0.3204 
    126 H126       36.2966   28.5590    3.2872 H         1 UNK         0.0748 
    127 H127       37.2324   26.2839    2.9412 H         1 UNK         0.0771 
    128 H128       35.7327   25.7545    2.1921 H         1 UNK         0.0771 
    129 H129       36.7273   26.9869    1.4155 H         1 UNK         0.0771 
    130 H130       34.3350   29.0794    4.8469 H         1 UNK         0.2980 
    131 H131       33.3930   26.9794    6.5342 H         1 UNK         0.0545 
    132 H132       36.8102   27.9921    8.3757 H         1 UNK         0.3459 
    133 H133       36.5026   28.4208    6.7109 H         1 UNK         0.3459 
    134 H134       33.0754   29.6754    7.7175 H         1 UNK         0.0616 
    135 H135       32.6960   29.7287    6.0398 H         1 UNK         0.0616 
    136 H136       30.9431   28.8958    4.8954 H         1 UNK         0.0634 
    137 H137       29.3924   28.6825    5.6571 H         1 UNK         0.0634 
@<TRIPOS>BOND
     1    1    2 1    
     2    1   72 1    
     3    1   73 1    
     4    1   74 1    
     5    2    3 2    
     6    2    4 am   BACKBONE|DICT|INTERRES
     7    4    5 1    
     8    4   75 1    
     9    5    6 1    
    10    5   35 1    
    11    5   76 1    
    12    6    7 1    
    13    6   77 1    
    14    6   78 1    
    15    7    8 1    
    16    8    9 1    
    17    8   79 1    
    18    8   80 1    
    19    9   10 ar   
    20    9   14 ar   
    21   10   11 ar   
    22   10   81 1    
    23   11   12 ar   
    24   11   71 1    
    25   12   13 ar   
    26   12   82 1    
    27   13   14 ar   
    28   13   15 1    
    29   14   83 1    
    30   15   16 1    
    31   15   84 1    
    32   15   85 1    
    33   16   17 1    
    34   17   18 1    
    35   17   86 1    
    36   17   87 1    
    37   18   19 1    
    38   18   37 1    
    39   18   88 1    
    40   19   20 am   BACKBONE|DICT|INTERRES
    41   19   89 1    
    42   20   21 2    
    43   20   22 1    
    44   22   23 1    
    45   22   24 1    
    46   22   90 1    
    47   23   91 1    
    48   23   92 1    
    49   23   93 1    
    50   24   25 am   BACKBONE|DICT|INTERRES
    51   24   94 1    
    52   25   26 2    
    53   25   27 1    
    54   27   28 1    
    55   27   29 1    
    56   27   95 1    
    57   28   96 1    
    58   28   97 1    
    59   28   98 1    
    60   29   30 am   BACKBONE|DICT|INTERRES
    61   29   99 1    
    62   30   31 2    
    63   30   32 1    
    64   32   33 1    
    65   32   34 1    
    66   32  100 1    
    67   33  101 1    
    68   33  102 1    
    69   33  103 1    
    70   34   35 am   BACKBONE|DICT|INTERRES
    71   34  104 1    
    72   35   36 2    
    73   37   38 2    
    74   37   39 am   BACKBONE|DICT|INTERRES
    75   39   40 1    
    76   39  105 1    
    77   40   41 1    
    78   40   42 1    
    79   40  106 1    
    80   41  107 1    
    81   41  108 1    
    82   41  109 1    
    83   42   43 2    
    84   42   44 am   BACKBONE|DICT|INTERRES
    85   44   45 1    
    86   44  110 1    
    87   45   46 1    
    88   45   47 1    
    89   45  111 1    
    90   46  112 1    
    91   46  113 1    
    92   46  114 1    
    93   47   48 2    
    94   47   49 am   BACKBONE|DICT|INTERRES
    95   49   50 1    
    96   49  115 1    
    97   50   51 1    
    98   50   52 1    
    99   50  116 1    
   100   51  117 1    
   101   51  118 1    
   102   51  119 1    
   103   52   53 2    
   104   52   54 am   BACKBONE|DICT|INTERRES
   105   54   55 1    
   106   54  120 1    
   107   55   56 1    
   108   55   57 1    
   109   55  121 1    
   110   56  122 1    
   111   56  123 1    
   112   56  124 1    
   113   57   58 2    
   114   57   59 am   BACKBONE|DICT|INTERRES
   115   59   60 1    
   116   59  125 1    
   117   60   61 1    
   118   60   62 1    
   119   60  126 1    
   120   61  127 1    
   121   61  128 1    
   122   61  129 1    
   123   62   63 2    
   124   62   64 am   BACKBONE|DICT|INTERRES
   125   64   65 1    
   126   64  130 1    
   127   65   66 1    
   128   65   69 1    
   129   65  131 1    
   130   66   67 am   BACKBONE|DICT|INTERRES
   131   66   68 2    
   132   67  132 1    
   133   67  133 1    
   134   69   70 1    
   135   69  134 1    
   136   69  135 1    
   137   70   71 1    
   138   71  136 1    
   139   71  137 1    
@<TRIPOS>SUBSTRUCTURE
     1 UNK         1 GROUP             0       ****    0 ROOT    
