@<TRIPOS>MOLECULE
3R136
137   139    1
SMALL
USER_CHARGES


@<TRIPOS>ATOM
      1 CA         28.8658   18.4570    0.9477 C.3       0 UNK        -0.1979 
      2 C          28.5171   19.9268    0.7650 C.2       0 UNK         0.4864 
      3 O          28.4742   20.4086   -0.3680 O.2       0 UNK        -0.5359 
      4 N          28.2781   20.6427    1.8709 N.am      1 UNK        -0.4318 
      5 CA         27.8843   22.0545    1.8859 C.3       1 UNK         0.0824 
      6 C6         28.0608   22.6885    3.2889 C.3       12 UNK        -0.0944 
      7 S7         29.7766   22.5770    3.9189 S.3       12 UNK        -0.2672 
      8 C8         30.3246   24.3201    3.9396 C.3       12 UNK         0.0333 
      9 C9         31.3998   24.6436    2.9048 C.ar      12 UNK        -0.0807 
     10 C10        32.5009   25.4249    3.2701 C.ar      12 UNK        -0.0894 
     11 C11        33.4741   25.7746    2.3274 C.ar      12 UNK        -0.0804 
     12 C12        33.3443   25.3282    1.0083 C.ar      12 UNK        -0.0824 
     13 C13        32.2567   24.5358    0.6306 C.ar      12 UNK        -0.0762 
     14 C14        31.2903   24.2019    1.5826 C.ar      12 UNK        -0.0782 
     15 C15        32.1439   24.0132   -0.7955 C.3       12 UNK         0.0230 
     16 S16        31.3594   25.2140   -1.9185 S.3       12 UNK        -0.2608 
     17 C17        29.6185   25.1687   -1.3751 C.3       12 UNK        -0.0989 
     18 CA         29.1961   26.5044   -0.6898 C.3       5 UNK         0.0716 
     19 N          28.2132   27.2288   -1.4944 N.am      5 UNK        -0.4135 
     20 C          28.1089   28.5627   -1.5700 C.2       4 UNK         0.5031 
     21 O          28.8926   29.3380   -1.0200 O.2       4 UNK        -0.5229 
     22 CA         26.9348   29.1433   -2.3809 C.3       4 UNK         0.0329 
     23 CB         27.4175   29.6085   -3.7644 C.3       4 UNK        -0.2001 
     24 N          25.8176   28.2109   -2.5523 N.am      4 UNK        -0.4303 
     25 C          24.9834   27.8221   -1.5779 C.2       3 UNK         0.5044 
     26 O          25.0357   28.2471   -0.4230 O.2       3 UNK        -0.5152 
     27 CA         23.9126   26.7721   -1.9404 C.3       3 UNK         0.0319 
     28 CB         23.8699   26.3974   -3.4407 C.3       3 UNK        -0.2001 
     29 N          24.0298   25.5584   -1.1223 N.am      3 UNK        -0.4354 
     30 C          25.1160   24.7839   -0.9834 C.2       2 UNK         0.4964 
     31 O          26.2016   25.0042   -1.5287 O.2       2 UNK        -0.5047 
     32 CA         24.9364   23.5166   -0.1390 C.3       2 UNK         0.0288 
     33 CB         24.4566   22.3595   -1.0413 C.3       2 UNK        -0.2113 
     34 N          26.2091   23.1925    0.5023 N.am      2 UNK        -0.4145 
     35 C          26.4341   22.2122    1.3841 C.2       1 UNK         0.5006 
     36 O          25.5587   21.4562    1.8157 O.2       1 UNK        -0.5103 
     37 C          28.5984   26.3323    0.7192 C.2       5 UNK         0.5055 
     38 O          28.1319   25.2484    1.0709 O.2       5 UNK        -0.5220 
     39 N          28.5774   27.4314    1.4774 N.am      6 UNK        -0.4450 
     40 CA         28.0942   27.5159    2.8504 C.3       6 UNK         0.0367 
     41 CB         26.9070   28.4914    2.8986 C.3       6 UNK        -0.1929 
     42 C          29.2375   28.0184    3.7379 C.2       6 UNK         0.5070 
     43 O          30.1459   28.6915    3.2460 O.2       6 UNK        -0.5237 
     44 N          29.1619   27.7090    5.0374 N.am      7 UNK        -0.4739 
     45 CA         30.1311   28.1224    6.0550 C.3       7 UNK         0.0276 
     46 CB         30.0299   27.1671    7.2582 C.3       7 UNK        -0.1927 
     47 C          29.9398   29.6000    6.4506 C.2       7 UNK         0.5013 
     48 O          29.4870   29.8900    7.5599 O.2       7 UNK        -0.5193 
     49 N          30.2563   30.5038    5.5194 N.am      8 UNK        -0.4253 
     50 CA         30.1682   31.9530    5.6649 C.3       8 UNK         0.0242 
     51 CB         28.8269   32.4367    5.0861 C.3       8 UNK        -0.2000 
     52 C          31.3496   32.6082    4.9402 C.2       8 UNK         0.4948 
     53 O          31.9733   31.9750    4.0831 O.2       8 UNK        -0.5275 
     54 N          31.6290   33.8715    5.2942 N.am      9 UNK        -0.4246 
     55 CA         32.7291   34.7012    4.7863 C.3       9 UNK         0.0261 
     56 CB         32.4706   35.1071    3.3162 C.3       9 UNK        -0.1959 
     57 C          34.0894   34.0199    5.0323 C.2       9 UNK         0.5033 
     58 O          34.4128   33.7412    6.1889 O.2       9 UNK        -0.5390 
     59 N          34.8371   33.7179    3.9618 N.am      10 UNK        -0.4215 
     60 CA         36.1077   32.9851    3.9989 C.3       10 UNK         0.0240 
     61 CB         36.7224   32.9680    2.5898 C.3       10 UNK        -0.1982 
     62 C          35.9913   31.5505    4.5518 C.2       10 UNK         0.4970 
     63 O          36.9779   31.0348    5.0787 O.2       10 UNK        -0.4916 
     64 N          34.8018   30.9463    4.4402 N.am      11 UNK        -0.4279 
     65 CA         34.4602   29.6429    5.0250 C.3       11 UNK         0.1003 
     66 C          33.8619   29.7506    6.4595 C.2       11 UNK         0.5709 
     67 N          33.7683   30.9264    7.0718 N.am      11 UNK        -0.7358 
     68 O          33.4854   28.7373    7.0426 O.2       11 UNK        -0.4999 
     69 C69        33.5461   28.8255    4.0754 C.3       12 UNK        -0.0954 
     70 S70        34.3748   28.3955    2.5079 S.3       12 UNK        -0.2268 
     71 C71        34.6797   26.6140    2.7298 C.3       12 UNK         0.0203 
     72 H72        28.8817   18.1693    1.9988 H         1 UNK         0.0888 
     73 H73        29.8482   18.2491    0.5247 H         1 UNK         0.0888 
     74 H74        28.1345   17.8319    0.4361 H         1 UNK         0.0888 
     75 H75        28.3188   20.1948    2.7750 H         1 UNK         0.3017 
     76 H76        28.5314   22.5806    1.1846 H         1 UNK         0.0873 
     77 H77        27.4120   22.1896    4.0115 H         1 UNK         0.0745 
     78 H78        27.7364   23.7298    3.2758 H         1 UNK         0.0745 
     79 H79        29.4816   24.9892    3.7828 H         1 UNK         0.0705 
     80 H80        30.6944   24.5356    4.9431 H         1 UNK         0.0705 
     81 H81        32.5978   25.7639    4.2916 H         1 UNK         0.1334 
     82 H82        34.0951   25.5915    0.2756 H         1 UNK         0.1417 
     83 H83        30.4487   23.5945    1.2932 H         1 UNK         0.1562 
     84 H84        31.5904   23.0728   -0.8187 H         1 UNK         0.0748 
     85 H85        33.1400   23.7819   -1.1761 H         1 UNK         0.0748 
     86 H86        29.4725   24.2920   -0.7445 H         1 UNK         0.0940 
     87 H87        29.0048   24.9686   -2.2552 H         1 UNK         0.0940 
     88 H88        30.0837   27.1295   -0.5662 H         1 UNK         0.0703 
     89 H89        27.4720   26.6575   -1.8846 H         1 UNK         0.3081 
     90 H90        26.5660   30.0158   -1.8372 H         1 UNK         0.0719 
     91 H91        27.7888   28.7766   -4.3643 H         1 UNK         0.0809 
     92 H92        26.6172   30.0956   -4.3219 H         1 UNK         0.0809 
     93 H93        28.2301   30.3306   -3.6715 H         1 UNK         0.0809 
     94 H94        25.7014   27.8035   -3.4691 H         1 UNK         0.2990 
     95 H95        22.9523   27.2243   -1.6877 H         1 UNK         0.0690 
     96 H96        23.6996   27.2751   -4.0658 H         1 UNK         0.0788 
     97 H97        23.0528   25.7049   -3.6437 H         1 UNK         0.0788 
     98 H98        24.7912   25.9183   -3.7747 H         1 UNK         0.0788 
     99 H99        23.1940   25.2997   -0.6165 H         1 UNK         0.2993 
    100 H100       24.1977   23.7086    0.6417 H         1 UNK         0.0949 
    101 H101       23.5503   22.6331   -1.5834 H         1 UNK         0.0767 
    102 H102       25.2116   22.0922   -1.7820 H         1 UNK         0.0767 
    103 H103       24.2221   21.4645   -0.4658 H         1 UNK         0.0767 
    104 H104       26.9624   23.8422    0.2858 H         1 UNK         0.3013 
    105 H105       29.0206   28.2713    1.1244 H         1 UNK         0.3121 
    106 H106       27.7677   26.5377    3.2085 H         1 UNK         0.0774 
    107 H107       26.0951   28.1553    2.2529 H         1 UNK         0.0815 
    108 H108       27.1944   29.4936    2.5774 H         1 UNK         0.0815 
    109 H109       26.5054   28.5740    3.9092 H         1 UNK         0.0815 
    110 H110       28.3562   27.1992    5.3711 H         1 UNK         0.2987 
    111 H111       31.1364   28.0224    5.6435 H         1 UNK         0.0949 
    112 H112       29.0411   27.1941    7.7176 H         1 UNK         0.0806 
    113 H113       30.2379   26.1376    6.9669 H         1 UNK         0.0806 
    114 H114       30.7557   27.4364    8.0270 H         1 UNK         0.0806 
    115 H115       30.6075   30.1796    4.6219 H         1 UNK         0.3010 
    116 H116       30.2304   32.2214    6.7219 H         1 UNK         0.0829 
    117 H117       28.7351   32.1896    4.0275 H         1 UNK         0.0813 
    118 H118       27.9845   31.9829    5.6087 H         1 UNK         0.0813 
    119 H119       28.7211   33.5180    5.1808 H         1 UNK         0.0813 
    120 H120       31.0753   34.2930    6.0273 H         1 UNK         0.3038 
    121 H121       32.7352   35.6136    5.3845 H         1 UNK         0.0769 
    122 H122       32.4307   34.2471    2.6465 H         1 UNK         0.0811 
    123 H123       33.2435   35.7840    2.9496 H         1 UNK         0.0811 
    124 H124       31.5211   35.6343    3.2222 H         1 UNK         0.0811 
    125 H125       34.4794   33.9615    3.0494 H         1 UNK         0.3204 
    126 H126       36.7827   33.5321    4.6605 H         1 UNK         0.0748 
    127 H127       36.8950   33.9783    2.2181 H         1 UNK         0.0771 
    128 H128       37.6862   32.4566    2.5906 H         1 UNK         0.0771 
    129 H129       36.0803   32.4503    1.8757 H         1 UNK         0.0771 
    130 H130       34.0213   31.4511    4.0352 H         1 UNK         0.2980 
    131 H131       35.3780   29.0661    5.1518 H         1 UNK         0.0545 
    132 H132       33.3908   30.9580    8.0048 H         1 UNK         0.3459 
    133 H133       34.0861   31.7820    6.6312 H         1 UNK         0.3459 
    134 H134       33.2144   27.9076    4.5570 H         1 UNK         0.0616 
    135 H135       32.6420   29.3867    3.8400 H         1 UNK         0.0616 
    136 H136       35.5405   26.3332    2.1212 H         1 UNK         0.0634 
    137 H137       34.9641   26.4100    3.7632 H         1 UNK         0.0634 
@<TRIPOS>BOND
     1    1    2 1    
     2    1   72 1    
     3    1   73 1    
     4    1   74 1    
     5    2    3 2    
     6    2    4 am   BACKBONE|DICT|INTERRES
     7    4    5 1    
     8    4   75 1    
     9    5    6 1    
    10    5   35 1    
    11    5   76 1    
    12    6    7 1    
    13    6   77 1    
    14    6   78 1    
    15    7    8 1    
    16    8    9 1    
    17    8   79 1    
    18    8   80 1    
    19    9   10 ar   
    20    9   14 ar   
    21   10   11 ar   
    22   10   81 1    
    23   11   12 ar   
    24   11   71 1    
    25   12   13 ar   
    26   12   82 1    
    27   13   14 ar   
    28   13   15 1    
    29   14   83 1    
    30   15   16 1    
    31   15   84 1    
    32   15   85 1    
    33   16   17 1    
    34   17   18 1    
    35   17   86 1    
    36   17   87 1    
    37   18   19 1    
    38   18   37 1    
    39   18   88 1    
    40   19   20 am   BACKBONE|DICT|INTERRES
    41   19   89 1    
    42   20   21 2    
    43   20   22 1    
    44   22   23 1    
    45   22   24 1    
    46   22   90 1    
    47   23   91 1    
    48   23   92 1    
    49   23   93 1    
    50   24   25 am   BACKBONE|DICT|INTERRES
    51   24   94 1    
    52   25   26 2    
    53   25   27 1    
    54   27   28 1    
    55   27   29 1    
    56   27   95 1    
    57   28   96 1    
    58   28   97 1    
    59   28   98 1    
    60   29   30 am   BACKBONE|DICT|INTERRES
    61   29   99 1    
    62   30   31 2    
    63   30   32 1    
    64   32   33 1    
    65   32   34 1    
    66   32  100 1    
    67   33  101 1    
    68   33  102 1    
    69   33  103 1    
    70   34   35 am   BACKBONE|DICT|INTERRES
    71   34  104 1    
    72   35   36 2    
    73   37   38 2    
    74   37   39 am   BACKBONE|DICT|INTERRES
    75   39   40 1    
    76   39  105 1    
    77   40   41 1    
    78   40   42 1    
    79   40  106 1    
    80   41  107 1    
    81   41  108 1    
    82   41  109 1    
    83   42   43 2    
    84   42   44 am   BACKBONE|DICT|INTERRES
    85   44   45 1    
    86   44  110 1    
    87   45   46 1    
    88   45   47 1    
    89   45  111 1    
    90   46  112 1    
    91   46  113 1    
    92   46  114 1    
    93   47   48 2    
    94   47   49 am   BACKBONE|DICT|INTERRES
    95   49   50 1    
    96   49  115 1    
    97   50   51 1    
    98   50   52 1    
    99   50  116 1    
   100   51  117 1    
   101   51  118 1    
   102   51  119 1    
   103   52   53 2    
   104   52   54 am   BACKBONE|DICT|INTERRES
   105   54   55 1    
   106   54  120 1    
   107   55   56 1    
   108   55   57 1    
   109   55  121 1    
   110   56  122 1    
   111   56  123 1    
   112   56  124 1    
   113   57   58 2    
   114   57   59 am   BACKBONE|DICT|INTERRES
   115   59   60 1    
   116   59  125 1    
   117   60   61 1    
   118   60   62 1    
   119   60  126 1    
   120   61  127 1    
   121   61  128 1    
   122   61  129 1    
   123   62   63 2    
   124   62   64 am   BACKBONE|DICT|INTERRES
   125   64   65 1    
   126   64  130 1    
   127   65   66 1    
   128   65   69 1    
   129   65  131 1    
   130   66   67 am   BACKBONE|DICT|INTERRES
   131   66   68 2    
   132   67  132 1    
   133   67  133 1    
   134   69   70 1    
   135   69  134 1    
   136   69  135 1    
   137   70   71 1    
   138   71  136 1    
   139   71  137 1    
@<TRIPOS>SUBSTRUCTURE
     1 UNK         1 GROUP             0       ****    0 ROOT    
