@<TRIPOS>MOLECULE
3R136
137   139    1
SMALL
USER_CHARGES


@<TRIPOS>ATOM
      1 CA         26.6257   21.0574    1.1162 C.3       0 UNK        -0.1979 
      2 C          26.9963   22.5295    1.0344 C.2       0 UNK         0.4864 
      3 O          26.7645   23.1603    0.0013 O.2       0 UNK        -0.5359 
      4 N          27.5522   23.0895    2.1193 N.am      1 UNK        -0.4318 
      5 CA         28.0385   24.4741    2.2185 C.3       1 UNK         0.0824 
      6 C6         28.6319   24.7959    3.6084 C.3       12 UNK        -0.0944 
      7 S7         29.9971   23.6966    4.1040 S.3       12 UNK        -0.2672 
      8 C8         31.1600   24.8936    4.8354 C.3       12 UNK         0.0333 
      9 C9         32.2214   25.3311    3.8370 C.ar      12 UNK        -0.0807 
     10 C10        33.4595   24.6836    3.8234 C.ar      12 UNK        -0.0894 
     11 C11        34.4664   25.0911    2.9451 C.ar      12 UNK        -0.0804 
     12 C12        34.2151   26.1312    2.0475 C.ar      12 UNK        -0.0824 
     13 C13        32.9830   26.7927    2.0522 C.ar      12 UNK        -0.0762 
     14 C14        31.9894   26.3919    2.9539 C.ar      12 UNK        -0.0782 
     15 C15        32.7557   27.9671    1.1122 C.3       12 UNK         0.0230 
     16 S16        31.5932   27.5650   -0.2287 S.3       12 UNK        -0.2608 
     17 C17        30.0722   28.3869    0.3499 C.3       12 UNK        -0.0989 
     18 CA         29.0361   28.6148   -0.7873 C.3       5 UNK         0.0716 
     19 N          28.5050   27.3408   -1.2681 N.am      5 UNK        -0.4135 
     20 C          28.8299   26.7413   -2.4176 C.2       4 UNK         0.5031 
     21 O          29.5564   27.2437   -3.2770 O.2       4 UNK        -0.5229 
     22 CA         28.2808   25.3230   -2.6456 C.3       4 UNK         0.0329 
     23 CB         29.2559   24.2809   -2.0733 C.3       4 UNK        -0.2001 
     24 N          26.9531   25.0980   -2.0722 N.am      4 UNK        -0.4303 
     25 C          25.8159   25.6109   -2.5630 C.2       3 UNK         0.5044 
     26 O          25.7664   26.3721   -3.5297 O.2       3 UNK        -0.5152 
     27 CA         24.5122   25.1902   -1.8701 C.3       3 UNK         0.0319 
     28 CB         24.0954   23.7774   -2.3127 C.3       3 UNK        -0.2001 
     29 N          24.6624   25.2186   -0.4158 N.am      3 UNK        -0.4354 
     30 C          24.2309   26.2130    0.3725 C.2       2 UNK         0.4964 
     31 O          23.5784   27.1751   -0.0340 O.2       2 UNK        -0.5047 
     32 CA         24.5599   26.1256    1.8751 C.3       2 UNK         0.0288 
     33 CB         23.3348   25.6458    2.6705 C.3       2 UNK        -0.2113 
     34 N          25.7006   25.2602    2.1889 N.am      2 UNK        -0.4145 
     35 C          26.9746   25.5348    1.8736 C.2       1 UNK         0.5006 
     36 O          27.3283   26.5685    1.3134 O.2       1 UNK        -0.5103 
     37 C          27.8675   29.4852   -0.2882 C.2       5 UNK         0.5055 
     38 O          26.7212   29.0323   -0.2328 O.2       5 UNK        -0.5220 
     39 N          28.1829   30.7138    0.1438 N.am      6 UNK        -0.4450 
     40 CA         27.2914   31.5674    0.9349 C.3       6 UNK         0.0367 
     41 CB         27.7028   33.0410    0.7565 C.3       6 UNK        -0.1929 
     42 C          27.2939   31.1211    2.4126 C.2       6 UNK         0.5070 
     43 O          27.7277   31.8733    3.2867 O.2       6 UNK        -0.5237 
     44 N          26.8590   29.8758    2.6512 N.am      7 UNK        -0.4739 
     45 CA         26.7263   29.1544    3.9262 C.3       7 UNK         0.0276 
     46 CB         25.7211   29.8522    4.8618 C.3       7 UNK        -0.1927 
     47 C          28.0419   28.8451    4.6646 C.2       7 UNK         0.5013 
     48 O          28.1998   27.7230    5.1434 O.2       7 UNK        -0.5193 
     49 N          28.9525   29.8188    4.7605 N.am      8 UNK        -0.4253 
     50 CA         30.2272   29.7156    5.4736 C.3       8 UNK         0.0242 
     51 CB         29.9992   29.7718    6.9999 C.3       8 UNK        -0.2000 
     52 C          31.1956   30.7976    4.9746 C.2       8 UNK         0.4948 
     53 O          31.7507   31.5511    5.7757 O.2       8 UNK        -0.5275 
     54 N          31.3687   30.8728    3.6477 N.am      9 UNK        -0.4246 
     55 CA         32.2273   31.8606    2.9810 C.3       9 UNK         0.0261 
     56 CB         31.8457   31.9477    1.4933 C.3       9 UNK        -0.1959 
     57 C          33.7396   31.5987    3.1341 C.2       9 UNK         0.5033 
     58 O          34.5289   32.5021    2.8530 O.2       9 UNK        -0.5390 
     59 N          34.1242   30.3883    3.5553 N.am      10 UNK        -0.4215 
     60 CA         35.5005   29.9512    3.7695 C.3       10 UNK         0.0240 
     61 CB         36.1570   29.5844    2.4227 C.3       10 UNK        -0.1982 
     62 C          35.4971   28.7619    4.7399 C.2       10 UNK         0.4970 
     63 O          34.4237   28.2819    5.1138 O.2       10 UNK        -0.4916 
     64 N          36.7032   28.3205    5.1193 N.am      11 UNK        -0.4279 
     65 CA         36.9844   27.1599    5.9869 C.3       11 UNK         0.1003 
     66 C          36.5537   27.3320    7.4763 C.2       11 UNK         0.5709 
     67 N          36.2589   28.5388    7.9455 N.am      11 UNK        -0.7358 
     68 O          36.5213   26.3645    8.2337 O.2       11 UNK        -0.4999 
     69 C69        36.5115   25.8042    5.3823 C.3       12 UNK        -0.0954 
     70 S70        37.1157   25.5229    3.6794 S.3       12 UNK        -0.2268 
     71 C71        35.8344   24.4249    2.9869 C.3       12 UNK         0.0203 
     72 H72        25.5566   20.9307    0.9478 H         1 UNK         0.0888 
     73 H73        27.1602   20.4955    0.3509 H         1 UNK         0.0888 
     74 H74        26.8711   20.6279    2.0873 H         1 UNK         0.0888 
     75 H75        27.7274   22.5175    2.9338 H         1 UNK         0.3017 
     76 H76        28.8359   24.5794    1.4798 H         1 UNK         0.0873 
     77 H77        27.8630   24.7503    4.3823 H         1 UNK         0.0745 
     78 H78        29.0007   25.8218    3.6080 H         1 UNK         0.0745 
     79 H79        31.6356   24.4246    5.6981 H         1 UNK         0.0705 
     80 H80        30.6274   25.7603    5.2309 H         1 UNK         0.0705 
     81 H81        33.6485   23.8755    4.5169 H         1 UNK         0.1334 
     82 H82        34.9952   26.4424    1.3666 H         1 UNK         0.1417 
     83 H83        31.0390   26.9054    2.9701 H         1 UNK         0.1562 
     84 H84        33.6960   28.2792    0.6561 H         1 UNK         0.0748 
     85 H85        32.4084   28.8224    1.6887 H         1 UNK         0.0748 
     86 H86        30.3625   29.3359    0.7987 H         1 UNK         0.0940 
     87 H87        29.6399   27.7910    1.1552 H         1 UNK         0.0940 
     88 H88        29.5096   29.1607   -1.6060 H         1 UNK         0.0703 
     89 H89        27.8503   26.8997   -0.6300 H         1 UNK         0.3081 
     90 H90        28.2125   25.1659   -3.7243 H         1 UNK         0.0719 
     91 H91        30.2506   24.3970   -2.5061 H         1 UNK         0.0809 
     92 H92        29.3584   24.3768   -0.9917 H         1 UNK         0.0809 
     93 H93        28.9239   23.2651   -2.2888 H         1 UNK         0.0809 
     94 H94        26.8983   24.4391   -1.2975 H         1 UNK         0.2990 
     95 H95        23.7282   25.8823   -2.1847 H         1 UNK         0.0690 
     96 H96        23.9766   23.7276   -3.3959 H         1 UNK         0.0788 
     97 H97        23.1419   23.4908   -1.8688 H         1 UNK         0.0788 
     98 H98        24.8343   23.0264   -2.0301 H         1 UNK         0.0788 
     99 H99        25.2212   24.4761   -0.0092 H         1 UNK         0.2993 
    100 H100       24.8027   27.1387    2.2003 H         1 UNK         0.0949 
    101 H101       22.4722   26.2873    2.4840 H         1 UNK         0.0767 
    102 H102       23.0496   24.6288    2.3978 H         1 UNK         0.0767 
    103 H103       23.5250   25.6670    3.7438 H         1 UNK         0.0767 
    104 H104       25.4978   24.3829    2.6460 H         1 UNK         0.3013 
    105 H105       29.1333   31.0373    0.0418 H         1 UNK         0.3121 
    106 H106       26.2689   31.4649    0.5643 H         1 UNK         0.0774 
    107 H107       27.0245   33.7000    1.3002 H         1 UNK         0.0815 
    108 H108       28.7082   33.2358    1.1292 H         1 UNK         0.0815 
    109 H109       27.6689   33.3385   -0.2917 H         1 UNK         0.0815 
    110 H110       26.5999   29.3350    1.8304 H         1 UNK         0.2987 
    111 H111       26.3020   28.1846    3.6648 H         1 UNK         0.0949 
    112 H112       25.5620   29.2664    5.7682 H         1 UNK         0.0806 
    113 H113       24.7505   29.9733    4.3808 H         1 UNK         0.0806 
    114 H114       26.0676   30.8386    5.1716 H         1 UNK         0.0806 
    115 H115       28.7228   30.7203    4.3430 H         1 UNK         0.3010 
    116 H116       30.6863   28.7538    5.2335 H         1 UNK         0.0829 
    117 H117       29.3708   28.9502    7.3432 H         1 UNK         0.0813 
    118 H118       30.9437   29.6969    7.5403 H         1 UNK         0.0813 
    119 H119       29.5223   30.7059    7.2990 H         1 UNK         0.0813 
    120 H120       30.8599   30.2312    3.0597 H         1 UNK         0.3038 
    121 H121       32.0259   32.8346    3.4327 H         1 UNK         0.0769 
    122 H122       30.7819   32.1407    1.3668 H         1 UNK         0.0811 
    123 H123       32.3789   32.7660    1.0069 H         1 UNK         0.0811 
    124 H124       32.0970   31.0379    0.9493 H         1 UNK         0.0811 
    125 H125       33.4317   29.7140    3.8564 H         1 UNK         0.3204 
    126 H126       36.0589   30.7640    4.2389 H         1 UNK         0.0748 
    127 H127       37.2076   29.3218    2.5502 H         1 UNK         0.0771 
    128 H128       35.6656   28.7317    1.9567 H         1 UNK         0.0771 
    129 H129       36.1211   30.4162    1.7190 H         1 UNK         0.0771 
    130 H130       37.5213   28.7968    4.7692 H         1 UNK         0.2980 
    131 H131       38.0726   27.1123    6.0351 H         1 UNK         0.0545 
    132 H132       36.2899   29.3440    7.3419 H         1 UNK         0.3459 
    133 H133       35.9942   28.6406    8.9125 H         1 UNK         0.3459 
    134 H134       36.8628   24.9696    5.9913 H         1 UNK         0.0616 
    135 H135       35.4236   25.7559    5.4047 H         1 UNK         0.0616 
    136 H136       36.1255   24.1370    1.9759 H         1 UNK         0.0634 
    137 H137       35.8021   23.5043    3.5715 H         1 UNK         0.0634 
@<TRIPOS>BOND
     1    1    2 1    
     2    1   72 1    
     3    1   73 1    
     4    1   74 1    
     5    2    3 2    
     6    2    4 am   BACKBONE|DICT|INTERRES
     7    4    5 1    
     8    4   75 1    
     9    5    6 1    
    10    5   35 1    
    11    5   76 1    
    12    6    7 1    
    13    6   77 1    
    14    6   78 1    
    15    7    8 1    
    16    8    9 1    
    17    8   79 1    
    18    8   80 1    
    19    9   10 ar   
    20    9   14 ar   
    21   10   11 ar   
    22   10   81 1    
    23   11   12 ar   
    24   11   71 1    
    25   12   13 ar   
    26   12   82 1    
    27   13   14 ar   
    28   13   15 1    
    29   14   83 1    
    30   15   16 1    
    31   15   84 1    
    32   15   85 1    
    33   16   17 1    
    34   17   18 1    
    35   17   86 1    
    36   17   87 1    
    37   18   19 1    
    38   18   37 1    
    39   18   88 1    
    40   19   20 am   BACKBONE|DICT|INTERRES
    41   19   89 1    
    42   20   21 2    
    43   20   22 1    
    44   22   23 1    
    45   22   24 1    
    46   22   90 1    
    47   23   91 1    
    48   23   92 1    
    49   23   93 1    
    50   24   25 am   BACKBONE|DICT|INTERRES
    51   24   94 1    
    52   25   26 2    
    53   25   27 1    
    54   27   28 1    
    55   27   29 1    
    56   27   95 1    
    57   28   96 1    
    58   28   97 1    
    59   28   98 1    
    60   29   30 am   BACKBONE|DICT|INTERRES
    61   29   99 1    
    62   30   31 2    
    63   30   32 1    
    64   32   33 1    
    65   32   34 1    
    66   32  100 1    
    67   33  101 1    
    68   33  102 1    
    69   33  103 1    
    70   34   35 am   BACKBONE|DICT|INTERRES
    71   34  104 1    
    72   35   36 2    
    73   37   38 2    
    74   37   39 am   BACKBONE|DICT|INTERRES
    75   39   40 1    
    76   39  105 1    
    77   40   41 1    
    78   40   42 1    
    79   40  106 1    
    80   41  107 1    
    81   41  108 1    
    82   41  109 1    
    83   42   43 2    
    84   42   44 am   BACKBONE|DICT|INTERRES
    85   44   45 1    
    86   44  110 1    
    87   45   46 1    
    88   45   47 1    
    89   45  111 1    
    90   46  112 1    
    91   46  113 1    
    92   46  114 1    
    93   47   48 2    
    94   47   49 am   BACKBONE|DICT|INTERRES
    95   49   50 1    
    96   49  115 1    
    97   50   51 1    
    98   50   52 1    
    99   50  116 1    
   100   51  117 1    
   101   51  118 1    
   102   51  119 1    
   103   52   53 2    
   104   52   54 am   BACKBONE|DICT|INTERRES
   105   54   55 1    
   106   54  120 1    
   107   55   56 1    
   108   55   57 1    
   109   55  121 1    
   110   56  122 1    
   111   56  123 1    
   112   56  124 1    
   113   57   58 2    
   114   57   59 am   BACKBONE|DICT|INTERRES
   115   59   60 1    
   116   59  125 1    
   117   60   61 1    
   118   60   62 1    
   119   60  126 1    
   120   61  127 1    
   121   61  128 1    
   122   61  129 1    
   123   62   63 2    
   124   62   64 am   BACKBONE|DICT|INTERRES
   125   64   65 1    
   126   64  130 1    
   127   65   66 1    
   128   65   69 1    
   129   65  131 1    
   130   66   67 am   BACKBONE|DICT|INTERRES
   131   66   68 2    
   132   67  132 1    
   133   67  133 1    
   134   69   70 1    
   135   69  134 1    
   136   69  135 1    
   137   70   71 1    
   138   71  136 1    
   139   71  137 1    
@<TRIPOS>SUBSTRUCTURE
     1 UNK         1 GROUP             0       ****    0 ROOT    
