@<TRIPOS>MOLECULE
3R136
137   139    1
SMALL
USER_CHARGES


@<TRIPOS>ATOM
      1 CA         29.2584   19.7074    0.1344 C.3       0 UNK        -0.1979 
      2 C          29.3614   20.6537   -1.0529 C.2       0 UNK         0.4864 
      3 O          29.1513   20.2338   -2.1922 O.2       0 UNK        -0.5359 
      4 N          29.6906   21.9248   -0.7941 N.am      1 UNK        -0.4318 
      5 CA         29.7453   23.0003   -1.7874 C.3       1 UNK         0.0824 
      6 C6         30.6149   24.1908   -1.2983 C.3       12 UNK        -0.0944 
      7 S7         30.1484   24.8439    0.3463 S.3       12 UNK        -0.2672 
      8 C8         31.5793   24.3020    1.3323 C.3       12 UNK         0.0333 
      9 C9         31.3200   24.4854    2.8174 C.ar      12 UNK        -0.0807 
     10 C10        31.8660   25.5707    3.5090 C.ar      12 UNK        -0.0894 
     11 C11        31.6135   25.7386    4.8746 C.ar      12 UNK        -0.0804 
     12 C12        30.7991   24.8210    5.5449 C.ar      12 UNK        -0.0824 
     13 C13        30.2447   23.7354    4.8595 C.ar      12 UNK        -0.0762 
     14 C14        30.5242   23.5629    3.5012 C.ar      12 UNK        -0.0782 
     15 C15        29.3045   22.7722    5.5682 C.3       12 UNK         0.0230 
     16 S16        27.6091   22.8926    4.9091 S.3       12 UNK        -0.2608 
     17 C17        27.1766   24.6240    5.3043 C.3       12 UNK        -0.0989 
     18 CA         27.4597   25.6221    4.1411 C.3       5 UNK         0.0716 
     19 N          26.8860   25.2278    2.8480 N.am      5 UNK        -0.4135 
     20 C          25.5908   25.0278    2.5721 C.2       4 UNK         0.5031 
     21 O          24.6824   25.1496    3.3961 O.2       4 UNK        -0.5229 
     22 CA         25.2686   24.6585    1.1100 C.3       4 UNK         0.0329 
     23 CB         23.7591   24.7265    0.7963 C.3       4 UNK        -0.2001 
     24 N          26.0242   25.4434    0.1226 N.am      4 UNK        -0.4303 
     25 C          26.0619   26.7829    0.0090 C.2       3 UNK         0.5044 
     26 O          25.5403   27.5463    0.8207 O.2       3 UNK        -0.5152 
     27 CA         26.8191   27.3959   -1.1870 C.3       3 UNK         0.0319 
     28 CB         28.0672   28.1505   -0.7047 C.3       3 UNK        -0.2001 
     29 N          27.2207   26.4185   -2.1990 N.am      3 UNK        -0.4354 
     30 C          26.3927   25.8041   -3.0566 C.2       2 UNK         0.4964 
     31 O          25.1971   26.0763   -3.1667 O.2       2 UNK        -0.5047 
     32 CA         26.9900   24.6712   -3.9157 C.3       2 UNK         0.0288 
     33 CB         27.2540   25.1650   -5.3478 C.3       2 UNK        -0.2113 
     34 N          28.2249   24.0863   -3.3735 N.am      2 UNK        -0.4145 
     35 C          28.3292   23.4607   -2.1910 C.2       1 UNK         0.5006 
     36 O          27.3797   23.3072   -1.4163 O.2       1 UNK        -0.5103 
     37 C          27.1530   27.0846    4.5413 C.2       5 UNK         0.5055 
     38 O          27.4137   27.4566    5.6864 O.2       5 UNK        -0.5220 
     39 N          26.6527   27.9045    3.6059 N.am      6 UNK        -0.4450 
     40 CA         26.4312   29.3418    3.7726 C.3       6 UNK         0.0367 
     41 CB         24.9420   29.6563    3.5360 C.3       6 UNK        -0.1929 
     42 C          27.3645   30.1244    2.8324 C.2       6 UNK         0.5070 
     43 O          26.9375   31.0928    2.2007 O.2       6 UNK        -0.5237 
     44 N          28.6256   29.6802    2.7402 N.am      7 UNK        -0.4739 
     45 CA         29.6848   30.3387    1.9736 C.3       7 UNK         0.0276 
     46 CB         30.8001   29.3190    1.6799 C.3       7 UNK        -0.1927 
     47 C          30.2397   31.5687    2.7164 C.2       7 UNK         0.5013 
     48 O          29.9686   31.7548    3.9058 O.2       7 UNK        -0.5193 
     49 N          31.0116   32.3840    1.9871 N.am      8 UNK        -0.4253 
     50 CA         31.6885   33.5771    2.4950 C.3       8 UNK         0.0242 
     51 CB         31.7942   34.6145    1.3567 C.3       8 UNK        -0.2000 
     52 C          33.0402   33.1972    3.1307 C.2       8 UNK         0.4948 
     53 O          33.0561   32.5277    4.1645 O.2       8 UNK        -0.5275 
     54 N          34.1518   33.6186    2.5075 N.am      9 UNK        -0.4246 
     55 CA         35.5302   33.4682    2.9945 C.3       9 UNK         0.0261 
     56 CB         36.4977   34.1032    1.9825 C.3       9 UNK        -0.1959 
     57 C          35.9617   32.0253    3.3140 C.2       9 UNK         0.5033 
     58 O          36.7905   31.8336    4.2049 O.2       9 UNK        -0.5390 
     59 N          35.3678   31.0389    2.6265 N.am      10 UNK        -0.4215 
     60 CA         35.5593   29.6063    2.8756 C.3       10 UNK         0.0240 
     61 CB         34.8087   28.7962    1.8061 C.3       10 UNK        -0.1982 
     62 C          35.1348   29.1532    4.2863 C.2       10 UNK         0.4970 
     63 O          35.7045   28.1855    4.7918 O.2       10 UNK        -0.4916 
     64 N          34.1698   29.8561    4.8946 N.am      11 UNK        -0.4279 
     65 CA         33.7281   29.6544    6.2825 C.3       11 UNK         0.1003 
     66 C          34.3900   30.6499    7.2812 C.2       11 UNK         0.5709 
     67 N          35.3701   31.4553    6.8848 N.am      11 UNK        -0.7358 
     68 O          34.0264   30.6777    8.4548 O.2       11 UNK        -0.4999 
     69 C69        32.1766   29.6563    6.3991 C.3       12 UNK        -0.0954 
     70 S70        31.2967   28.4414    5.3520 S.3       12 UNK        -0.2268 
     71 C71        32.2322   26.9057    5.6254 C.3       12 UNK         0.0203 
     72 H72        29.4786   20.2092    1.0766 H         1 UNK         0.0888 
     73 H73        28.2520   19.2946    0.1980 H         1 UNK         0.0888 
     74 H74        29.9596   18.8814    0.0183 H         1 UNK         0.0888 
     75 H75        29.8033   22.2268    0.1620 H         1 UNK         0.3017 
     76 H76        30.2169   22.5951   -2.6857 H         1 UNK         0.0873 
     77 H77        30.5880   25.0150   -2.0135 H         1 UNK         0.0745 
     78 H78        31.6601   23.8786   -1.2735 H         1 UNK         0.0745 
     79 H79        31.7920   23.2512    1.1295 H         1 UNK         0.0705 
     80 H80        32.4629   24.8625    1.0227 H         1 UNK         0.0705 
     81 H81        32.4850   26.2879    2.9870 H         1 UNK         0.1334 
     82 H82        30.5865   24.9610    6.5961 H         1 UNK         0.1417 
     83 H83        30.0886   22.7285    2.9687 H         1 UNK         0.1562 
     84 H84        29.2885   22.9561    6.6436 H         1 UNK         0.0748 
     85 H85        29.6667   21.7519    5.4352 H         1 UNK         0.0748 
     86 H86        27.7219   24.9172    6.2033 H         1 UNK         0.0940 
     87 H87        26.1212   24.6527    5.5800 H         1 UNK         0.0940 
     88 H88        28.5343   25.6256    3.9665 H         1 UNK         0.0703 
     89 H89        27.5521   25.1030    2.0987 H         1 UNK         0.3081 
     90 H90        25.5859   23.6223    0.9825 H         1 UNK         0.0719 
     91 H91        23.5548   24.4287   -0.2322 H         1 UNK         0.0809 
     92 H92        23.3630   25.7327    0.9390 H         1 UNK         0.0809 
     93 H93        23.1926   24.0576    1.4453 H         1 UNK         0.0809 
     94 H94        26.5242   24.8872   -0.5653 H         1 UNK         0.2990 
     95 H95        26.1467   28.1165   -1.6573 H         1 UNK         0.0690 
     96 H96        28.5888   28.6319   -1.5319 H         1 UNK         0.0788 
     97 H97        28.7696   27.4851   -0.2034 H         1 UNK         0.0788 
     98 H98        27.7951   28.9341    0.0027 H         1 UNK         0.0788 
     99 H99        28.1892   26.1358   -2.1894 H         1 UNK         0.2993 
    100 H100       26.2416   23.8767   -3.9581 H         1 UNK         0.0949 
    101 H101       26.3473   25.5788   -5.7919 H         1 UNK         0.0767 
    102 H102       28.0144   25.9467   -5.3718 H         1 UNK         0.0767 
    103 H103       27.5853   24.3519   -5.9942 H         1 UNK         0.0767 
    104 H104       29.0503   24.1778   -3.9488 H         1 UNK         0.3013 
    105 H105       26.4372   27.5402    2.6829 H         1 UNK         0.3121 
    106 H106       26.6811   29.6580    4.7874 H         1 UNK         0.0774 
    107 H107       24.7315   30.7113    3.7151 H         1 UNK         0.0815 
    108 H108       24.6394   29.4318    2.5128 H         1 UNK         0.0815 
    109 H109       24.3048   29.0805    4.2072 H         1 UNK         0.0815 
    110 H110       28.9112   28.9218    3.3424 H         1 UNK         0.2987 
    111 H111       29.2635   30.6763    1.0240 H         1 UNK         0.0949 
    112 H112       31.3613   29.0623    2.5770 H         1 UNK         0.0806 
    113 H113       30.4043   28.3935    1.2631 H         1 UNK         0.0806 
    114 H114       31.5122   29.7163    0.9563 H         1 UNK         0.0806 
    115 H115       31.1910   32.1438    1.0229 H         1 UNK         0.3010 
    116 H116       31.0849   34.0225    3.2890 H         1 UNK         0.0829 
    117 H117       30.8036   34.9050    1.0055 H         1 UNK         0.0813 
    118 H118       32.2852   35.5279    1.6964 H         1 UNK         0.0813 
    119 H119       32.3454   34.2343    0.4957 H         1 UNK         0.0813 
    120 H120       34.0371   34.1547    1.6593 H         1 UNK         0.3038 
    121 H121       35.5986   34.0309    3.9279 H         1 UNK         0.0769 
    122 H122       37.5297   34.0294    2.3290 H         1 UNK         0.0811 
    123 H123       36.2840   35.1624    1.8374 H         1 UNK         0.0811 
    124 H124       36.4451   33.6121    1.0099 H         1 UNK         0.0811 
    125 H125       34.6996   31.2948    1.9147 H         1 UNK         0.3204 
    126 H126       36.6265   29.3973    2.7762 H         1 UNK         0.0748 
    127 H127       34.9624   27.7254    1.9482 H         1 UNK         0.0771 
    128 H128       33.7349   28.9771    1.8443 H         1 UNK         0.0771 
    129 H129       35.1572   29.0411    0.8025 H         1 UNK         0.0771 
    130 H130       33.7804   30.6758    4.4388 H         1 UNK         0.2980 
    131 H131       34.0750   28.6819    6.6311 H         1 UNK         0.0545 
    132 H132       35.7174   31.4358    5.9338 H         1 UNK         0.3459 
    133 H133       35.7857   32.0825    7.5545 H         1 UNK         0.3459 
    134 H134       31.8737   29.4654    7.4300 H         1 UNK         0.0616 
    135 H135       31.7875   30.6450    6.1479 H         1 UNK         0.0616 
    136 H136       32.2784   26.6957    6.6951 H         1 UNK         0.0634 
    137 H137       33.2593   27.0285    5.2847 H         1 UNK         0.0634 
@<TRIPOS>BOND
     1    1    2 1    
     2    1   72 1    
     3    1   73 1    
     4    1   74 1    
     5    2    3 2    
     6    2    4 am   BACKBONE|DICT|INTERRES
     7    4    5 1    
     8    4   75 1    
     9    5    6 1    
    10    5   35 1    
    11    5   76 1    
    12    6    7 1    
    13    6   77 1    
    14    6   78 1    
    15    7    8 1    
    16    8    9 1    
    17    8   79 1    
    18    8   80 1    
    19    9   10 ar   
    20    9   14 ar   
    21   10   11 ar   
    22   10   81 1    
    23   11   12 ar   
    24   11   71 1    
    25   12   13 ar   
    26   12   82 1    
    27   13   14 ar   
    28   13   15 1    
    29   14   83 1    
    30   15   16 1    
    31   15   84 1    
    32   15   85 1    
    33   16   17 1    
    34   17   18 1    
    35   17   86 1    
    36   17   87 1    
    37   18   19 1    
    38   18   37 1    
    39   18   88 1    
    40   19   20 am   BACKBONE|DICT|INTERRES
    41   19   89 1    
    42   20   21 2    
    43   20   22 1    
    44   22   23 1    
    45   22   24 1    
    46   22   90 1    
    47   23   91 1    
    48   23   92 1    
    49   23   93 1    
    50   24   25 am   BACKBONE|DICT|INTERRES
    51   24   94 1    
    52   25   26 2    
    53   25   27 1    
    54   27   28 1    
    55   27   29 1    
    56   27   95 1    
    57   28   96 1    
    58   28   97 1    
    59   28   98 1    
    60   29   30 am   BACKBONE|DICT|INTERRES
    61   29   99 1    
    62   30   31 2    
    63   30   32 1    
    64   32   33 1    
    65   32   34 1    
    66   32  100 1    
    67   33  101 1    
    68   33  102 1    
    69   33  103 1    
    70   34   35 am   BACKBONE|DICT|INTERRES
    71   34  104 1    
    72   35   36 2    
    73   37   38 2    
    74   37   39 am   BACKBONE|DICT|INTERRES
    75   39   40 1    
    76   39  105 1    
    77   40   41 1    
    78   40   42 1    
    79   40  106 1    
    80   41  107 1    
    81   41  108 1    
    82   41  109 1    
    83   42   43 2    
    84   42   44 am   BACKBONE|DICT|INTERRES
    85   44   45 1    
    86   44  110 1    
    87   45   46 1    
    88   45   47 1    
    89   45  111 1    
    90   46  112 1    
    91   46  113 1    
    92   46  114 1    
    93   47   48 2    
    94   47   49 am   BACKBONE|DICT|INTERRES
    95   49   50 1    
    96   49  115 1    
    97   50   51 1    
    98   50   52 1    
    99   50  116 1    
   100   51  117 1    
   101   51  118 1    
   102   51  119 1    
   103   52   53 2    
   104   52   54 am   BACKBONE|DICT|INTERRES
   105   54   55 1    
   106   54  120 1    
   107   55   56 1    
   108   55   57 1    
   109   55  121 1    
   110   56  122 1    
   111   56  123 1    
   112   56  124 1    
   113   57   58 2    
   114   57   59 am   BACKBONE|DICT|INTERRES
   115   59   60 1    
   116   59  125 1    
   117   60   61 1    
   118   60   62 1    
   119   60  126 1    
   120   61  127 1    
   121   61  128 1    
   122   61  129 1    
   123   62   63 2    
   124   62   64 am   BACKBONE|DICT|INTERRES
   125   64   65 1    
   126   64  130 1    
   127   65   66 1    
   128   65   69 1    
   129   65  131 1    
   130   66   67 am   BACKBONE|DICT|INTERRES
   131   66   68 2    
   132   67  132 1    
   133   67  133 1    
   134   69   70 1    
   135   69  134 1    
   136   69  135 1    
   137   70   71 1    
   138   71  136 1    
   139   71  137 1    
@<TRIPOS>SUBSTRUCTURE
     1 UNK         1 GROUP             0       ****    0 ROOT    
