@<TRIPOS>MOLECULE
3R136
137   139    1
SMALL
USER_CHARGES


@<TRIPOS>ATOM
      1 CA         30.4498   23.0579   -4.4876 C.3       0 UNK        -0.1979 
      2 C          30.1257   23.9269   -3.2823 C.2       0 UNK         0.4864 
      3 O          29.1717   24.7059   -3.3285 O.2       0 UNK        -0.5359 
      4 N          30.8978   23.7869   -2.1933 N.am      1 UNK        -0.4318 
      5 CA         30.7574   24.5585   -0.9491 C.3       1 UNK         0.0824 
      6 C6         31.9281   24.3075    0.0330 C.3       12 UNK        -0.0944 
      7 S7         32.0018   22.5927    0.6597 S.3       12 UNK        -0.2672 
      8 C8         32.7064   22.8309    2.3246 C.3       12 UNK         0.0333 
      9 C9         31.8394   23.6599    3.2713 C.ar      12 UNK        -0.0807 
     10 C10        32.4386   24.6497    4.0547 C.ar      12 UNK        -0.0894 
     11 C11        31.6946   25.3721    4.9930 C.ar      12 UNK        -0.0804 
     12 C12        30.3255   25.1211    5.1243 C.ar      12 UNK        -0.0824 
     13 C13        29.7073   24.1428    4.3396 C.ar      12 UNK        -0.0762 
     14 C14        30.4692   23.4124    3.4190 C.ar      12 UNK        -0.0782 
     15 C15        28.2266   23.8382    4.5159 C.3       12 UNK         0.0230 
     16 S16        27.2049   24.6703    3.2611 S.3       12 UNK        -0.2608 
     17 C17        26.7312   26.2437    4.0520 C.3       12 UNK        -0.0989 
     18 CA         27.4699   27.4852    3.4894 C.3       5 UNK         0.0716 
     19 N          27.4184   27.5695    2.0211 N.am      5 UNK        -0.4135 
     20 C          27.8959   28.5778    1.2726 C.2       4 UNK         0.5031 
     21 O          28.4250   29.5839    1.7469 O.2       4 UNK        -0.5229 
     22 CA         27.7898   28.4769   -0.2582 C.3       4 UNK         0.0329 
     23 CB         29.1848   28.5871   -0.8987 C.3       4 UNK        -0.2001 
     24 N          27.1716   27.2335   -0.7222 N.am      4 UNK        -0.4303 
     25 C          26.0296   27.1507   -1.4195 C.2       3 UNK         0.5044 
     26 O          25.2904   28.1135   -1.6291 O.2       3 UNK        -0.5152 
     27 CA         25.6489   25.7846   -2.0255 C.3       3 UNK         0.0319 
     28 CB         25.7235   25.8410   -3.5609 C.3       3 UNK        -0.2001 
     29 N          26.5051   24.6915   -1.5613 N.am      3 UNK        -0.4354 
     30 C          26.2774   23.9681   -0.4556 C.2       2 UNK         0.4964 
     31 O          25.2726   24.0939    0.2442 O.2       2 UNK        -0.5047 
     32 CA         27.3521   22.9399   -0.0481 C.3       2 UNK         0.0288 
     33 CB         26.9711   21.5398   -0.5553 C.3       2 UNK        -0.2113 
     34 N          28.7069   23.2595   -0.5082 N.am      2 UNK        -0.4145 
     35 C          29.3851   24.3919   -0.2607 C.2       1 UNK         0.5006 
     36 O          28.9488   25.3128    0.4267 O.2       1 UNK        -0.5103 
     37 C          26.9087   28.7625    4.1505 C.2       5 UNK         0.5055 
     38 O          25.7977   29.1785    3.8124 O.2       5 UNK        -0.5220 
     39 N          27.7014   29.3747    5.0413 N.am      6 UNK        -0.4450 
     40 CA         27.4843   30.6546    5.7368 C.3       6 UNK         0.0367 
     41 CB         26.2024   30.6311    6.5928 C.3       6 UNK        -0.1929 
     42 C          27.5212   31.9026    4.8294 C.2       6 UNK         0.5070 
     43 O          28.0788   32.9187    5.2434 O.2       6 UNK        -0.5237 
     44 N          26.9416   31.8191    3.6252 N.am      7 UNK        -0.4739 
     45 CA         26.8583   32.8996    2.6372 C.3       7 UNK         0.0276 
     46 CB         25.9093   32.4764    1.5039 C.3       7 UNK        -0.1927 
     47 C          28.2250   33.3193    2.0690 C.2       7 UNK         0.5013 
     48 O          28.4891   34.5158    1.9433 O.2       7 UNK        -0.5193 
     49 N          29.0658   32.3310    1.7503 N.am      8 UNK        -0.4253 
     50 CA         30.4336   32.4919    1.2626 C.3       8 UNK         0.0242 
     51 CB         30.4363   32.6938   -0.2658 C.3       8 UNK        -0.2000 
     52 C          31.2347   31.2691    1.7271 C.2       8 UNK         0.4948 
     53 O          31.7654   30.5203    0.9052 O.2       8 UNK        -0.5275 
     54 N          31.2299   31.0648    3.0514 N.am      9 UNK        -0.4246 
     55 CA         31.7422   29.8946    3.7616 C.3       9 UNK         0.0261 
     56 CB         31.5498   30.1259    5.2716 C.3       9 UNK        -0.1959 
     57 C          33.2151   29.5802    3.4503 C.2       9 UNK         0.5033 
     58 O          34.0969   30.3579    3.8219 O.2       9 UNK        -0.5390 
     59 N          33.4648   28.4091    2.8503 N.am      10 UNK        -0.4215 
     60 CA         34.7954   27.8529    2.5736 C.3       10 UNK         0.0240 
     61 CB         34.6724   26.8347    1.4229 C.3       10 UNK        -0.1982 
     62 C          35.4597   27.2462    3.8317 C.2       10 UNK         0.4970 
     63 O          35.9994   26.1405    3.7688 O.2       10 UNK        -0.4916 
     64 N          35.3805   27.9711    4.9522 N.am      11 UNK        -0.4279 
     65 CA         35.8629   27.5838    6.2874 C.3       11 UNK         0.1003 
     66 C          36.8435   28.6289    6.8957 C.2       11 UNK         0.5709 
     67 N          37.2278   29.6832    6.1840 N.am      11 UNK        -0.7358 
     68 O          37.2868   28.4720    8.0310 O.2       11 UNK        -0.4999 
     69 C69        34.6787   27.2704    7.2488 C.3       12 UNK        -0.0954 
     70 S70        33.7794   25.7491    6.7948 S.3       12 UNK        -0.2268 
     71 C71        32.3739   26.4260    5.8558 C.3       12 UNK         0.0203 
     72 H72        30.6773   23.6843   -5.3496 H         1 UNK         0.0888 
     73 H73        31.3058   22.4086   -4.3043 H         1 UNK         0.0888 
     74 H74        29.5948   22.4306   -4.7381 H         1 UNK         0.0888 
     75 H75        31.6545   23.1169   -2.2026 H         1 UNK         0.3017 
     76 H76        30.8124   25.6084   -1.2441 H         1 UNK         0.0873 
     77 H77        32.8782   24.5356   -0.4527 H         1 UNK         0.0745 
     78 H78        31.8549   25.0015    0.8722 H         1 UNK         0.0745 
     79 H79        33.6946   23.2809    2.2140 H         1 UNK         0.0705 
     80 H80        32.8663   21.8508    2.7754 H         1 UNK         0.0705 
     81 H81        33.4993   24.8397    3.9604 H         1 UNK         0.1334 
     82 H82        29.7419   25.6756    5.8462 H         1 UNK         0.1417 
     83 H83        29.9958   22.6438    2.8233 H         1 UNK         0.1562 
     84 H84        27.8893   24.1011    5.5195 H         1 UNK         0.0748 
     85 H85        28.0708   22.7622    4.4247 H         1 UNK         0.0748 
     86 H86        26.8834   26.1676    5.1301 H         1 UNK         0.0940 
     87 H87        25.6533   26.3527    3.9131 H         1 UNK         0.0940 
     88 H88        28.5266   27.3934    3.7486 H         1 UNK         0.0703 
     89 H89        27.0378   26.7611    1.5519 H         1 UNK         0.3081 
     90 H90        27.2028   29.3384   -0.5825 H         1 UNK         0.0719 
     91 H91        29.8460   27.7887   -0.5616 H         1 UNK         0.0809 
     92 H92        29.1293   28.5433   -1.9864 H         1 UNK         0.0809 
     93 H93        29.6640   29.5304   -0.6376 H         1 UNK         0.0809 
     94 H94        27.7037   26.3882   -0.5343 H         1 UNK         0.2990 
     95 H95        24.6129   25.5813   -1.7461 H         1 UNK         0.0690 
     96 H96        25.4129   24.8966   -4.0081 H         1 UNK         0.0788 
     97 H97        26.7348   26.0593   -3.9071 H         1 UNK         0.0788 
     98 H98        25.0677   26.6172   -3.9581 H         1 UNK         0.0788 
     99 H99        27.3596   24.5356   -2.0856 H         1 UNK         0.2993 
    100 H100       27.3795   22.9083    1.0412 H         1 UNK         0.0949 
    101 H101       26.9598   21.4948   -1.6452 H         1 UNK         0.0767 
    102 H102       27.6672   20.7828   -0.1933 H         1 UNK         0.0767 
    103 H103       25.9771   21.2555   -0.2064 H         1 UNK         0.0767 
    104 H104       29.1601   22.5666   -1.0856 H         1 UNK         0.3013 
    105 H105       28.5994   28.9502    5.2227 H         1 UNK         0.3121 
    106 H106       28.3222   30.7555    6.4282 H         1 UNK         0.0774 
    107 H107       26.1246   31.5359    7.1969 H         1 UNK         0.0815 
    108 H108       25.3009   30.5756    5.9823 H         1 UNK         0.0815 
    109 H109       26.1974   29.7832    7.2776 H         1 UNK         0.0815 
    110 H110       26.4982   30.9362    3.3877 H         1 UNK         0.2987 
    111 H111       26.4291   33.7718    3.1351 H         1 UNK         0.0949 
    112 H112       25.8161   33.2657    0.7566 H         1 UNK         0.0806 
    113 H113       26.2653   31.5813    0.9919 H         1 UNK         0.0806 
    114 H114       24.9081   32.2692    1.8822 H         1 UNK         0.0806 
    115 H115       28.7624   31.3638    1.8772 H         1 UNK         0.3010 
    116 H116       30.8878   33.3687    1.7294 H         1 UNK         0.0829 
    117 H117       29.9131   33.6085   -0.5445 H         1 UNK         0.0813 
    118 H118       31.4547   32.7738   -0.6479 H         1 UNK         0.0813 
    119 H119       29.9548   31.8644   -0.7833 H         1 UNK         0.0813 
    120 H120       30.7711   31.7594    3.6226 H         1 UNK         0.3038 
    121 H121       31.1275   29.0424    3.4638 H         1 UNK         0.0769 
    122 H122       32.0850   31.0138    5.6117 H         1 UNK         0.0811 
    123 H123       31.9202   29.2882    5.8602 H         1 UNK         0.0811 
    124 H124       30.4998   30.2582    5.5248 H         1 UNK         0.0811 
    125 H125       32.6809   27.8324    2.5813 H         1 UNK         0.3204 
    126 H126       35.4437   28.6626    2.2322 H         1 UNK         0.0748 
    127 H127       35.6519   26.4570    1.1267 H         1 UNK         0.0771 
    128 H128       34.0644   25.9754    1.7071 H         1 UNK         0.0771 
    129 H129       34.2229   27.2867    0.5384 H         1 UNK         0.0771 
    130 H130       34.9536   28.8892    4.8844 H         1 UNK         0.2980 
    131 H131       36.4645   26.6777    6.1978 H         1 UNK         0.0545 
    132 H132       37.8698   30.3427    6.5949 H         1 UNK         0.3459 
    133 H133       36.9022   29.8211    5.2408 H         1 UNK         0.3459 
    134 H134       33.9854   28.1119    7.2984 H         1 UNK         0.0616 
    135 H135       35.0387   27.1178    8.2677 H         1 UNK         0.0616 
    136 H136       32.7264   27.2198    5.2040 H         1 UNK         0.0634 
    137 H137       31.6690   26.8789    6.5544 H         1 UNK         0.0634 
@<TRIPOS>BOND
     1    1    2 1    
     2    1   72 1    
     3    1   73 1    
     4    1   74 1    
     5    2    3 2    
     6    2    4 am   BACKBONE|DICT|INTERRES
     7    4    5 1    
     8    4   75 1    
     9    5    6 1    
    10    5   35 1    
    11    5   76 1    
    12    6    7 1    
    13    6   77 1    
    14    6   78 1    
    15    7    8 1    
    16    8    9 1    
    17    8   79 1    
    18    8   80 1    
    19    9   10 ar   
    20    9   14 ar   
    21   10   11 ar   
    22   10   81 1    
    23   11   12 ar   
    24   11   71 1    
    25   12   13 ar   
    26   12   82 1    
    27   13   14 ar   
    28   13   15 1    
    29   14   83 1    
    30   15   16 1    
    31   15   84 1    
    32   15   85 1    
    33   16   17 1    
    34   17   18 1    
    35   17   86 1    
    36   17   87 1    
    37   18   19 1    
    38   18   37 1    
    39   18   88 1    
    40   19   20 am   BACKBONE|DICT|INTERRES
    41   19   89 1    
    42   20   21 2    
    43   20   22 1    
    44   22   23 1    
    45   22   24 1    
    46   22   90 1    
    47   23   91 1    
    48   23   92 1    
    49   23   93 1    
    50   24   25 am   BACKBONE|DICT|INTERRES
    51   24   94 1    
    52   25   26 2    
    53   25   27 1    
    54   27   28 1    
    55   27   29 1    
    56   27   95 1    
    57   28   96 1    
    58   28   97 1    
    59   28   98 1    
    60   29   30 am   BACKBONE|DICT|INTERRES
    61   29   99 1    
    62   30   31 2    
    63   30   32 1    
    64   32   33 1    
    65   32   34 1    
    66   32  100 1    
    67   33  101 1    
    68   33  102 1    
    69   33  103 1    
    70   34   35 am   BACKBONE|DICT|INTERRES
    71   34  104 1    
    72   35   36 2    
    73   37   38 2    
    74   37   39 am   BACKBONE|DICT|INTERRES
    75   39   40 1    
    76   39  105 1    
    77   40   41 1    
    78   40   42 1    
    79   40  106 1    
    80   41  107 1    
    81   41  108 1    
    82   41  109 1    
    83   42   43 2    
    84   42   44 am   BACKBONE|DICT|INTERRES
    85   44   45 1    
    86   44  110 1    
    87   45   46 1    
    88   45   47 1    
    89   45  111 1    
    90   46  112 1    
    91   46  113 1    
    92   46  114 1    
    93   47   48 2    
    94   47   49 am   BACKBONE|DICT|INTERRES
    95   49   50 1    
    96   49  115 1    
    97   50   51 1    
    98   50   52 1    
    99   50  116 1    
   100   51  117 1    
   101   51  118 1    
   102   51  119 1    
   103   52   53 2    
   104   52   54 am   BACKBONE|DICT|INTERRES
   105   54   55 1    
   106   54  120 1    
   107   55   56 1    
   108   55   57 1    
   109   55  121 1    
   110   56  122 1    
   111   56  123 1    
   112   56  124 1    
   113   57   58 2    
   114   57   59 am   BACKBONE|DICT|INTERRES
   115   59   60 1    
   116   59  125 1    
   117   60   61 1    
   118   60   62 1    
   119   60  126 1    
   120   61  127 1    
   121   61  128 1    
   122   61  129 1    
   123   62   63 2    
   124   62   64 am   BACKBONE|DICT|INTERRES
   125   64   65 1    
   126   64  130 1    
   127   65   66 1    
   128   65   69 1    
   129   65  131 1    
   130   66   67 am   BACKBONE|DICT|INTERRES
   131   66   68 2    
   132   67  132 1    
   133   67  133 1    
   134   69   70 1    
   135   69  134 1    
   136   69  135 1    
   137   70   71 1    
   138   71  136 1    
   139   71  137 1    
@<TRIPOS>SUBSTRUCTURE
     1 UNK         1 GROUP             0       ****    0 ROOT    
