@<TRIPOS>MOLECULE
3R136
137   139    1
SMALL
USER_CHARGES


@<TRIPOS>ATOM
      1 CA         27.5186   24.0405    6.5772 C.3       0 UNK        -0.1979 
      2 C          27.8076   24.5220    5.1643 C.2       0 UNK         0.4864 
      3 O          27.7231   25.7233    4.9071 O.2       0 UNK        -0.5359 
      4 N          28.1258   23.5947    4.2484 N.am      1 UNK        -0.4318 
      5 CA         28.5645   23.7885    2.8511 C.3       1 UNK         0.0824 
      6 C6         29.8943   24.5723    2.7283 C.3       12 UNK        -0.0944 
      7 S7         31.2635   23.7748    3.6338 S.3       12 UNK        -0.2672 
      8 C8         32.3144   23.1541    2.2835 C.3       12 UNK         0.0333 
      9 C9         32.8208   24.2587    1.3631 C.ar      12 UNK        -0.0807 
     10 C10        33.4779   25.3802    1.8811 C.ar      12 UNK        -0.0894 
     11 C11        33.9578   26.3809    1.0297 C.ar      12 UNK        -0.0804 
     12 C12        33.7794   26.2488   -0.3512 C.ar      12 UNK        -0.0824 
     13 C13        33.1148   25.1379   -0.8812 C.ar      12 UNK        -0.0762 
     14 C14        32.6390   24.1473   -0.0182 C.ar      12 UNK        -0.0782 
     15 C15        32.9301   24.9881   -2.3862 C.3       12 UNK         0.0230 
     16 S16        32.0271   26.3808   -3.1348 S.3       12 UNK        -0.2608 
     17 C17        30.3671   26.2187   -2.3919 C.3       12 UNK        -0.0989 
     18 CA         29.5771   27.5495   -2.4880 C.3       5 UNK         0.0716 
     19 N          28.1267   27.3532   -2.4810 N.am      5 UNK        -0.4135 
     20 C          27.3676   27.3187   -3.5877 C.2       4 UNK         0.5031 
     21 O          27.8241   27.3362   -4.7320 O.2       4 UNK        -0.5229 
     22 CA         25.8351   27.2727   -3.4144 C.3       4 UNK         0.0329 
     23 CB         25.3180   25.8371   -3.6026 C.3       4 UNK        -0.2001 
     24 N          25.3705   27.7785   -2.1227 N.am      4 UNK        -0.4303 
     25 C          25.5463   29.0234   -1.6580 C.2       3 UNK         0.5044 
     26 O          25.9840   29.9513   -2.3385 O.2       3 UNK        -0.5152 
     27 CA         25.2238   29.2704   -0.1709 C.3       3 UNK         0.0319 
     28 CB         23.9650   30.1423   -0.0324 C.3       3 UNK        -0.2001 
     29 N          25.0551   28.0602    0.6469 N.am      3 UNK        -0.4354 
     30 C          25.9622   27.0907    0.8400 C.2       2 UNK         0.4964 
     31 O          27.0611   27.0593    0.2786 O.2       2 UNK        -0.5047 
     32 CA         25.5147   25.9665    1.7865 C.3       2 UNK         0.0288 
     33 CB         24.5374   24.9996    1.0860 C.3       2 UNK        -0.2113 
     34 N          26.6307   25.2542    2.4149 N.am      2 UNK        -0.4145 
     35 C          27.4928   24.3696    1.8973 C.2       1 UNK         0.5006 
     36 O          27.4610   23.9690    0.7321 O.2       1 UNK        -0.5103 
     37 C          30.0042   28.5761   -1.4232 C.2       5 UNK         0.5055 
     38 O          30.7296   29.5141   -1.7599 O.2       5 UNK        -0.5220 
     39 N          29.5521   28.4126   -0.1725 N.am      6 UNK        -0.4450 
     40 CA         29.9330   29.2590    0.9559 C.3       6 UNK         0.0367 
     41 CB         31.3810   28.9587    1.3862 C.3       6 UNK        -0.1929 
     42 C          28.9654   28.9951    2.1090 C.2       6 UNK         0.5070 
     43 O          29.0261   27.9234    2.7101 O.2       6 UNK        -0.5237 
     44 N          28.0854   29.9603    2.3992 N.am      7 UNK        -0.4739 
     45 CA         27.1043   29.8713    3.4829 C.3       7 UNK         0.0276 
     46 CB         26.1694   31.0902    3.4273 C.3       7 UNK        -0.1927 
     47 C          27.7854   29.7653    4.8587 C.2       7 UNK         0.5013 
     48 O          28.6289   30.6053    5.1795 O.2       7 UNK        -0.5193 
     49 N          27.4101   28.7322    5.6258 N.am      8 UNK        -0.4253 
     50 CA         27.9247   28.3823    6.9556 C.3       8 UNK         0.0242 
     51 CB         27.5222   29.4495    7.9970 C.3       8 UNK        -0.2000 
     52 C          29.4351   28.0641    6.9728 C.2       8 UNK         0.4948 
     53 O          30.0953   28.3285    7.9794 O.2       8 UNK        -0.5275 
     54 N          29.9440   27.4895    5.8694 N.am      9 UNK        -0.4246 
     55 CA         31.3299   27.0536    5.6500 C.3       9 UNK         0.0261 
     56 CB         31.6401   25.8175    6.5209 C.3       9 UNK        -0.1959 
     57 C          32.3557   28.1878    5.8470 C.2       9 UNK         0.5033 
     58 O          33.3464   28.0079    6.5582 O.2       9 UNK        -0.5390 
     59 N          32.0822   29.3448    5.2255 N.am      10 UNK        -0.4215 
     60 CA         32.7753   30.6263    5.4235 C.3       10 UNK         0.0240 
     61 CB         32.1666   31.6803    4.4832 C.3       10 UNK        -0.1982 
     62 C          34.3117   30.6192    5.2863 C.2       10 UNK         0.4970 
     63 O          34.9600   31.4625    5.9077 O.2       10 UNK        -0.4916 
     64 N          34.8685   29.6927    4.4947 N.am      11 UNK        -0.4279 
     65 CA         36.3203   29.4846    4.3642 C.3       11 UNK         0.1003 
     66 C          36.9799   28.7101    5.5448 C.2       11 UNK         0.5709 
     67 N          36.2291   28.1450    6.4835 N.am      11 UNK        -0.7358 
     68 O          38.2045   28.6383    5.6203 O.2       11 UNK        -0.4999 
     69 C69        36.7069   28.9106    2.9745 C.3       12 UNK        -0.0954 
     70 S70        36.0728   27.2325    2.6310 S.3       12 UNK        -0.2268 
     71 C71        34.6305   27.6242    1.5965 C.3       12 UNK         0.0203 
     72 H72        26.5030   24.3105    6.8648 H         1 UNK         0.0888 
     73 H73        27.6240   22.9598    6.6705 H         1 UNK         0.0888 
     74 H74        28.2084   24.5107    7.2776 H         1 UNK         0.0888 
     75 H75        28.1299   22.6282    4.5429 H         1 UNK         0.3017 
     76 H76        28.7567   22.7806    2.4793 H         1 UNK         0.0873 
     77 H77        29.7800   25.5776    3.1291 H         1 UNK         0.0745 
     78 H78        30.1700   24.6997    1.6803 H         1 UNK         0.0745 
     79 H79        31.7520   22.4048    1.7241 H         1 UNK         0.0705 
     80 H80        33.1720   22.6372    2.7159 H         1 UNK         0.0705 
     81 H81        33.6128   25.4755    2.9499 H         1 UNK         0.1334 
     82 H82        34.1441   27.0173   -1.0193 H         1 UNK         0.1417 
     83 H83        32.1322   23.2821   -0.4239 H         1 UNK         0.1562 
     84 H84        32.4089   24.0607   -2.6290 H         1 UNK         0.0748 
     85 H85        33.9132   24.9175   -2.8535 H         1 UNK         0.0748 
     86 H86        30.4373   25.8715   -1.3591 H         1 UNK         0.0940 
     87 H87        29.8462   25.4314   -2.9390 H         1 UNK         0.0940 
     88 H88        29.8357   28.0154   -3.4420 H         1 UNK         0.0703 
     89 H89        27.6738   27.3175   -1.5725 H         1 UNK         0.3081 
     90 H90        25.3995   27.9025   -4.1928 H         1 UNK         0.0719 
     91 H91        25.6222   25.4364   -4.5707 H         1 UNK         0.0809 
     92 H92        25.7053   25.1648   -2.8355 H         1 UNK         0.0809 
     93 H93        24.2291   25.7982   -3.5666 H         1 UNK         0.0809 
     94 H94        24.9977   27.0940   -1.4817 H         1 UNK         0.2990 
     95 H95        26.0693   29.8222    0.2438 H         1 UNK         0.0690 
     96 H96        24.0750   31.0790   -0.5809 H         1 UNK         0.0788 
     97 H97        23.7695   30.4016    1.0081 H         1 UNK         0.0788 
     98 H98        23.0810   29.6376   -0.4245 H         1 UNK         0.0788 
     99 H99        24.1675   27.9798    1.1227 H         1 UNK         0.2993 
    100 H100       24.9824   26.4374    2.6145 H         1 UNK         0.0949 
    101 H101       24.2401   24.1873    1.7494 H         1 UNK         0.0767 
    102 H102       23.6259   25.5143    0.7802 H         1 UNK         0.0767 
    103 H103       24.9717   24.5573    0.1887 H         1 UNK         0.0767 
    104 H104       26.8517   25.5452    3.3667 H         1 UNK         0.3013 
    105 H105       28.8895   27.6735    0.0537 H         1 UNK         0.3121 
    106 H106       29.8599   30.3080    0.6609 H         1 UNK         0.0774 
    107 H107       31.5107   27.9020    1.6242 H         1 UNK         0.0815 
    108 H108       32.0956   29.2157    0.6046 H         1 UNK         0.0815 
    109 H109       31.6521   29.5298    2.2726 H         1 UNK         0.0815 
    110 H110       28.1175   30.8290    1.8858 H         1 UNK         0.2987 
    111 H111       26.5058   28.9738    3.3130 H         1 UNK         0.0949 
    112 H112       25.4053   31.0305    4.2035 H         1 UNK         0.0806 
    113 H113       26.7143   32.0231    3.5786 H         1 UNK         0.0806 
    114 H114       25.6533   31.1547    2.4699 H         1 UNK         0.0806 
    115 H115       26.7701   28.0549    5.2329 H         1 UNK         0.3010 
    116 H116       27.4270   27.4516    7.2325 H         1 UNK         0.0829 
    117 H117       28.0366   30.3957    7.8256 H         1 UNK         0.0813 
    118 H118       26.4496   29.6414    7.9753 H         1 UNK         0.0813 
    119 H119       27.7706   29.1241    9.0079 H         1 UNK         0.0813 
    120 H120       29.2971   27.2873    5.1123 H         1 UNK         0.3038 
    121 H121       31.3976   26.7524    4.6038 H         1 UNK         0.0769 
    122 H122       31.6579   26.0639    7.5830 H         1 UNK         0.0811 
    123 H123       32.6137   25.3968    6.2664 H         1 UNK         0.0811 
    124 H124       30.8991   25.0323    6.3731 H         1 UNK         0.0811 
    125 H125       31.2156   29.3900    4.7079 H         1 UNK         0.3204 
    126 H126       32.5580   30.9299    6.4496 H         1 UNK         0.0748 
    127 H127       32.5927   32.6659    4.6761 H         1 UNK         0.0771 
    128 H128       32.3563   31.4476    3.4353 H         1 UNK         0.0771 
    129 H129       31.0885   31.7662    4.6214 H         1 UNK         0.0771 
    130 H130       34.2770   29.0043    4.0577 H         1 UNK         0.2980 
    131 H131       36.7814   30.4734    4.4032 H         1 UNK         0.0545 
    132 H132       36.6781   27.6565    7.2409 H         1 UNK         0.3459 
    133 H133       35.2131   28.1823    6.4427 H         1 UNK         0.3459 
    134 H134       37.7932   28.8799    2.8734 H         1 UNK         0.0616 
    135 H135       36.3690   29.5920    2.1925 H         1 UNK         0.0616 
    136 H136       33.9104   28.1760    2.1986 H         1 UNK         0.0634 
    137 H137       34.9411   28.2903    0.7900 H         1 UNK         0.0634 
@<TRIPOS>BOND
     1    1    2 1    
     2    1   72 1    
     3    1   73 1    
     4    1   74 1    
     5    2    3 2    
     6    2    4 am   BACKBONE|DICT|INTERRES
     7    4    5 1    
     8    4   75 1    
     9    5    6 1    
    10    5   35 1    
    11    5   76 1    
    12    6    7 1    
    13    6   77 1    
    14    6   78 1    
    15    7    8 1    
    16    8    9 1    
    17    8   79 1    
    18    8   80 1    
    19    9   10 ar   
    20    9   14 ar   
    21   10   11 ar   
    22   10   81 1    
    23   11   12 ar   
    24   11   71 1    
    25   12   13 ar   
    26   12   82 1    
    27   13   14 ar   
    28   13   15 1    
    29   14   83 1    
    30   15   16 1    
    31   15   84 1    
    32   15   85 1    
    33   16   17 1    
    34   17   18 1    
    35   17   86 1    
    36   17   87 1    
    37   18   19 1    
    38   18   37 1    
    39   18   88 1    
    40   19   20 am   BACKBONE|DICT|INTERRES
    41   19   89 1    
    42   20   21 2    
    43   20   22 1    
    44   22   23 1    
    45   22   24 1    
    46   22   90 1    
    47   23   91 1    
    48   23   92 1    
    49   23   93 1    
    50   24   25 am   BACKBONE|DICT|INTERRES
    51   24   94 1    
    52   25   26 2    
    53   25   27 1    
    54   27   28 1    
    55   27   29 1    
    56   27   95 1    
    57   28   96 1    
    58   28   97 1    
    59   28   98 1    
    60   29   30 am   BACKBONE|DICT|INTERRES
    61   29   99 1    
    62   30   31 2    
    63   30   32 1    
    64   32   33 1    
    65   32   34 1    
    66   32  100 1    
    67   33  101 1    
    68   33  102 1    
    69   33  103 1    
    70   34   35 am   BACKBONE|DICT|INTERRES
    71   34  104 1    
    72   35   36 2    
    73   37   38 2    
    74   37   39 am   BACKBONE|DICT|INTERRES
    75   39   40 1    
    76   39  105 1    
    77   40   41 1    
    78   40   42 1    
    79   40  106 1    
    80   41  107 1    
    81   41  108 1    
    82   41  109 1    
    83   42   43 2    
    84   42   44 am   BACKBONE|DICT|INTERRES
    85   44   45 1    
    86   44  110 1    
    87   45   46 1    
    88   45   47 1    
    89   45  111 1    
    90   46  112 1    
    91   46  113 1    
    92   46  114 1    
    93   47   48 2    
    94   47   49 am   BACKBONE|DICT|INTERRES
    95   49   50 1    
    96   49  115 1    
    97   50   51 1    
    98   50   52 1    
    99   50  116 1    
   100   51  117 1    
   101   51  118 1    
   102   51  119 1    
   103   52   53 2    
   104   52   54 am   BACKBONE|DICT|INTERRES
   105   54   55 1    
   106   54  120 1    
   107   55   56 1    
   108   55   57 1    
   109   55  121 1    
   110   56  122 1    
   111   56  123 1    
   112   56  124 1    
   113   57   58 2    
   114   57   59 am   BACKBONE|DICT|INTERRES
   115   59   60 1    
   116   59  125 1    
   117   60   61 1    
   118   60   62 1    
   119   60  126 1    
   120   61  127 1    
   121   61  128 1    
   122   61  129 1    
   123   62   63 2    
   124   62   64 am   BACKBONE|DICT|INTERRES
   125   64   65 1    
   126   64  130 1    
   127   65   66 1    
   128   65   69 1    
   129   65  131 1    
   130   66   67 am   BACKBONE|DICT|INTERRES
   131   66   68 2    
   132   67  132 1    
   133   67  133 1    
   134   69   70 1    
   135   69  134 1    
   136   69  135 1    
   137   70   71 1    
   138   71  136 1    
   139   71  137 1    
@<TRIPOS>SUBSTRUCTURE
     1 UNK         1 GROUP             0       ****    0 ROOT    
