@<TRIPOS>MOLECULE
3R136
137   139    1
SMALL
USER_CHARGES


@<TRIPOS>ATOM
      1 CA         26.3504   26.5772    5.1853 C.3       0 UNK        -0.1979 
      2 C          26.4995   25.1138    4.8039 C.2       0 UNK         0.4864 
      3 O          25.5049   24.3930    4.7178 O.2       0 UNK        -0.5359 
      4 N          27.7427   24.6784    4.5624 N.am      1 UNK        -0.4318 
      5 CA         28.0944   23.3396    4.0698 C.3       1 UNK         0.0824 
      6 C6         29.6163   23.0703    4.1926 C.3       12 UNK        -0.0944 
      7 S7         30.6547   24.3664    3.4260 S.3       12 UNK        -0.2672 
      8 C8         31.4181   23.4485    2.0508 C.3       12 UNK         0.0333 
      9 C9         32.2525   24.3467    1.1444 C.ar      12 UNK        -0.0807 
     10 C10        33.2046   25.2178    1.6845 C.ar      12 UNK        -0.0894 
     11 C11        33.9823   26.0371    0.8570 C.ar      12 UNK        -0.0804 
     12 C12        33.8001   25.9683   -0.5283 C.ar      12 UNK        -0.0824 
     13 C13        32.8550   25.1006   -1.0845 C.ar      12 UNK        -0.0762 
     14 C14        32.0874   24.2904   -0.2426 C.ar      12 UNK        -0.0782 
     15 C15        32.6817   25.0198   -2.5962 C.3       12 UNK         0.0230 
     16 S16        32.0078   26.5542   -3.3111 S.3       12 UNK        -0.2608 
     17 C17        30.2908   26.5399   -2.6944 C.3       12 UNK        -0.0989 
     18 CA         29.6620   27.9576   -2.6723 C.3       5 UNK         0.0716 
     19 N          28.2037   27.8924   -2.5963 N.am      5 UNK        -0.4135 
     20 C          27.3546   28.7007   -3.2448 C.2       4 UNK         0.5031 
     21 O          27.7079   29.5734   -4.0390 O.2       4 UNK        -0.5229 
     22 CA         25.8489   28.5022   -2.9773 C.3       4 UNK         0.0329 
     23 CB         25.2257   27.6094   -4.0626 C.3       4 UNK        -0.2001 
     24 N          25.5639   27.9265   -1.6602 N.am      4 UNK        -0.4303 
     25 C          25.7230   28.5757   -0.4985 C.2       3 UNK         0.5044 
     26 O          26.0264   29.7656   -0.4179 O.2       3 UNK        -0.5152 
     27 CA         25.5475   27.7573    0.7954 C.3       3 UNK         0.0319 
     28 CB         24.1478   27.9752    1.3904 C.3       3 UNK        -0.2001 
     29 N          25.8096   26.3154    0.6795 N.am      3 UNK        -0.4354 
     30 C          26.9612   25.7729    0.2612 C.2       2 UNK         0.4964 
     31 O          27.9012   26.4259   -0.1917 O.2       2 UNK        -0.5047 
     32 CA         27.1300   24.2698    0.4697 C.3       2 UNK         0.0288 
     33 CB         28.0832   23.6292   -0.5578 C.3       2 UNK        -0.2113 
     34 N          27.6766   24.1532    1.8102 N.am      2 UNK        -0.4145 
     35 C          27.5813   23.1046    2.6325 C.2       1 UNK         0.5006 
     36 O          27.0912   22.0186    2.3185 O.2       1 UNK        -0.5103 
     37 C          30.2083   28.8089   -1.5107 C.2       5 UNK         0.5055 
     38 O          31.0042   29.7194   -1.7489 O.2       5 UNK        -0.5220 
     39 N          29.7703   28.5062   -0.2817 N.am      6 UNK        -0.4450 
     40 CA         30.2538   29.1208    0.9473 C.3       6 UNK         0.0367 
     41 CB         31.4421   28.3092    1.4856 C.3       6 UNK        -0.1929 
     42 C          29.1091   29.2047    1.9583 C.2       6 UNK         0.5070 
     43 O          28.8778   28.2586    2.7171 O.2       6 UNK        -0.5237 
     44 N          28.4180   30.3513    1.9635 N.am      7 UNK        -0.4739 
     45 CA         27.4073   30.7124    2.9603 C.3       7 UNK         0.0276 
     46 CB         26.8115   32.0848    2.6117 C.3       7 UNK        -0.1927 
     47 C          28.0126   30.7186    4.3736 C.2       7 UNK         0.5013 
     48 O          29.0828   31.2985    4.5704 O.2       7 UNK        -0.5193 
     49 N          27.3456   30.0217    5.3037 N.am      8 UNK        -0.4253 
     50 CA         27.7741   29.7608    6.6855 C.3       8 UNK         0.0242 
     51 CB         27.7903   31.0693    7.5056 C.3       8 UNK        -0.2000 
     52 C          29.1008   28.9745    6.8116 C.2       8 UNK         0.4948 
     53 O          29.7010   28.9996    7.8869 O.2       8 UNK        -0.5275 
     54 N          29.5270   28.2854    5.7359 N.am      9 UNK        -0.4246 
     55 CA         30.7803   27.5270    5.6102 C.3       9 UNK         0.0261 
     56 CB         30.7744   26.2893    6.5340 C.3       9 UNK        -0.1959 
     57 C          32.0205   28.4211    5.8087 C.2       9 UNK         0.5033 
     58 O          32.8970   28.0977    6.6119 O.2       9 UNK        -0.5390 
     59 N          32.0448   29.5451    5.0770 N.am      10 UNK        -0.4215 
     60 CA         32.9908   30.6640    5.1789 C.3       10 UNK         0.0240 
     61 CB         32.7434   31.6273    4.0057 C.3       10 UNK        -0.1982 
     62 C          34.4912   30.3194    5.2688 C.2       10 UNK         0.4970 
     63 O          35.2182   31.0443    5.9500 O.2       10 UNK        -0.4916 
     64 N          34.9348   29.2490    4.5952 N.am      11 UNK        -0.4279 
     65 CA         36.3203   28.7523    4.6689 C.3       11 UNK         0.1003 
     66 C          36.6661   27.9498    5.9595 C.2       11 UNK         0.5709 
     67 N          35.7150   27.6200    6.8254 N.am      11 UNK        -0.7358 
     68 O          37.8319   27.6363    6.1903 O.2       11 UNK        -0.4999 
     69 C69        36.7545   28.0169    3.3726 C.3       12 UNK        -0.0954 
     70 S70        35.7703   26.5297    2.9856 S.3       12 UNK        -0.2268 
     71 C71        34.9766   27.0473    1.4282 C.3       12 UNK         0.0203 
     72 H72        26.6673   26.7322    6.2161 H         1 UNK         0.0888 
     73 H73        26.9532   27.2048    4.5299 H         1 UNK         0.0888 
     74 H74        25.3118   26.8949    5.0937 H         1 UNK         0.0888 
     75 H75        28.5214   25.3162    4.6475 H         1 UNK         0.3017 
     76 H76        27.5801   22.6155    4.7055 H         1 UNK         0.0873 
     77 H77        29.8711   22.0903    3.7843 H         1 UNK         0.0745 
     78 H78        29.8868   23.0218    5.2485 H         1 UNK         0.0745 
     79 H79        30.6298   22.9553    1.4798 H         1 UNK         0.0705 
     80 H80        32.0559   22.6610    2.4543 H         1 UNK         0.0705 
     81 H81        33.3218   25.2659    2.7578 H         1 UNK         0.1334 
     82 H82        34.3858   26.6017   -1.1808 H         1 UNK         0.1417 
     83 H83        31.3663   23.6081   -0.6703 H         1 UNK         0.1562 
     84 H84        32.0379   24.1838   -2.8742 H         1 UNK         0.0748 
     85 H85        33.6526   24.8196   -3.0515 H         1 UNK         0.0748 
     86 H86        30.2466   26.0733   -1.7085 H         1 UNK         0.0940 
     87 H87        29.7181   25.8893   -3.3574 H         1 UNK         0.0940 
     88 H88        29.9381   28.4572   -3.6038 H         1 UNK         0.0703 
     89 H89        27.8332   27.2483   -1.9052 H         1 UNK         0.3081 
     90 H90        25.3742   29.4845   -3.0295 H         1 UNK         0.0719 
     91 H91        25.3959   28.0272   -5.0560 H         1 UNK         0.0809 
     92 H92        25.6511   26.6050   -4.0549 H         1 UNK         0.0809 
     93 H93        24.1470   27.5196   -3.9323 H         1 UNK         0.0809 
     94 H94        25.2929   26.9544   -1.6315 H         1 UNK         0.2990 
     95 H95        26.2773   28.1433    1.5075 H         1 UNK         0.0690 
     96 H96        23.9386   29.0383    1.5189 H         1 UNK         0.0788 
     97 H97        24.0556   27.5091    2.3717 H         1 UNK         0.0788 
     98 H98        23.3684   27.5648    0.7471 H         1 UNK         0.0788 
     99 H99        25.0963   25.7030    1.0496 H         1 UNK         0.2993 
    100 H100       26.1541   23.7823    0.4166 H         1 UNK         0.0949 
    101 H101       28.1939   22.5590   -0.3828 H         1 UNK         0.0767 
    102 H102       27.7054   23.7571   -1.5727 H         1 UNK         0.0767 
    103 H103       29.0755   24.0774   -0.5186 H         1 UNK         0.0767 
    104 H104       28.1109   24.9951    2.1659 H         1 UNK         0.3013 
    105 H105       29.0909   27.7544   -0.1632 H         1 UNK         0.3121 
    106 H106       30.6008   30.1369    0.7466 H         1 UNK         0.0774 
    107 H107       31.1616   27.2771    1.7006 H         1 UNK         0.0815 
    108 H108       32.2516   28.2904    0.7576 H         1 UNK         0.0815 
    109 H109       31.8376   28.7439    2.4020 H         1 UNK         0.0815 
    110 H110       28.6661   31.0691    1.2983 H         1 UNK         0.2987 
    111 H111       26.6092   29.9698    2.9144 H         1 UNK         0.0949 
    112 H112       26.0399   32.3690    3.3285 H         1 UNK         0.0806 
    113 H113       27.5700   32.8687    2.6211 H         1 UNK         0.0806 
    114 H114       26.3482   32.0753    1.6246 H         1 UNK         0.0806 
    115 H115       26.4696   29.5938    5.0379 H         1 UNK         0.3010 
    116 H116       27.0090   29.1163    7.1205 H         1 UNK         0.0829 
    117 H117       28.5878   31.7395    7.1831 H         1 UNK         0.0813 
    118 H118       26.8454   31.6054    7.4179 H         1 UNK         0.0813 
    119 H119       27.9471   30.8673    8.5660 H         1 UNK         0.0813 
    120 H120       28.9906   28.3612    4.8786 H         1 UNK         0.3038 
    121 H121       30.8220   27.1704    4.5800 H         1 UNK         0.0769 
    122 H122       30.8049   26.5673    7.5878 H         1 UNK         0.0811 
    123 H123       31.6436   25.6594    6.3406 H         1 UNK         0.0811 
    124 H124       29.8893   25.6746    6.3767 H         1 UNK         0.0811 
    125 H125       31.2331   29.7269    4.5036 H         1 UNK         0.3204 
    126 H126       32.7373   31.1887    6.1021 H         1 UNK         0.0748 
    127 H127       33.4075   32.4913    4.0596 H         1 UNK         0.0771 
    128 H128       32.9152   31.1434    3.0433 H         1 UNK         0.0771 
    129 H129       31.7221   32.0091    4.0121 H         1 UNK         0.0771 
    130 H130       34.2788   28.6742    4.0897 H         1 UNK         0.2980 
    131 H131       36.9641   29.6323    4.7250 H         1 UNK         0.0545 
    132 H132       34.7406   27.8644    6.6617 H         1 UNK         0.3459 
    133 H133       35.9654   27.1082    7.6555 H         1 UNK         0.3459 
    134 H134       37.8030   27.7202    3.4357 H         1 UNK         0.0616 
    135 H135       36.7056   28.7119    2.5330 H         1 UNK         0.0616 
    136 H136       34.4587   27.9917    1.5954 H         1 UNK         0.0634 
    137 H137       35.7627   27.2465    0.6980 H         1 UNK         0.0634 
@<TRIPOS>BOND
     1    1    2 1    
     2    1   72 1    
     3    1   73 1    
     4    1   74 1    
     5    2    3 2    
     6    2    4 am   BACKBONE|DICT|INTERRES
     7    4    5 1    
     8    4   75 1    
     9    5    6 1    
    10    5   35 1    
    11    5   76 1    
    12    6    7 1    
    13    6   77 1    
    14    6   78 1    
    15    7    8 1    
    16    8    9 1    
    17    8   79 1    
    18    8   80 1    
    19    9   10 ar   
    20    9   14 ar   
    21   10   11 ar   
    22   10   81 1    
    23   11   12 ar   
    24   11   71 1    
    25   12   13 ar   
    26   12   82 1    
    27   13   14 ar   
    28   13   15 1    
    29   14   83 1    
    30   15   16 1    
    31   15   84 1    
    32   15   85 1    
    33   16   17 1    
    34   17   18 1    
    35   17   86 1    
    36   17   87 1    
    37   18   19 1    
    38   18   37 1    
    39   18   88 1    
    40   19   20 am   BACKBONE|DICT|INTERRES
    41   19   89 1    
    42   20   21 2    
    43   20   22 1    
    44   22   23 1    
    45   22   24 1    
    46   22   90 1    
    47   23   91 1    
    48   23   92 1    
    49   23   93 1    
    50   24   25 am   BACKBONE|DICT|INTERRES
    51   24   94 1    
    52   25   26 2    
    53   25   27 1    
    54   27   28 1    
    55   27   29 1    
    56   27   95 1    
    57   28   96 1    
    58   28   97 1    
    59   28   98 1    
    60   29   30 am   BACKBONE|DICT|INTERRES
    61   29   99 1    
    62   30   31 2    
    63   30   32 1    
    64   32   33 1    
    65   32   34 1    
    66   32  100 1    
    67   33  101 1    
    68   33  102 1    
    69   33  103 1    
    70   34   35 am   BACKBONE|DICT|INTERRES
    71   34  104 1    
    72   35   36 2    
    73   37   38 2    
    74   37   39 am   BACKBONE|DICT|INTERRES
    75   39   40 1    
    76   39  105 1    
    77   40   41 1    
    78   40   42 1    
    79   40  106 1    
    80   41  107 1    
    81   41  108 1    
    82   41  109 1    
    83   42   43 2    
    84   42   44 am   BACKBONE|DICT|INTERRES
    85   44   45 1    
    86   44  110 1    
    87   45   46 1    
    88   45   47 1    
    89   45  111 1    
    90   46  112 1    
    91   46  113 1    
    92   46  114 1    
    93   47   48 2    
    94   47   49 am   BACKBONE|DICT|INTERRES
    95   49   50 1    
    96   49  115 1    
    97   50   51 1    
    98   50   52 1    
    99   50  116 1    
   100   51  117 1    
   101   51  118 1    
   102   51  119 1    
   103   52   53 2    
   104   52   54 am   BACKBONE|DICT|INTERRES
   105   54   55 1    
   106   54  120 1    
   107   55   56 1    
   108   55   57 1    
   109   55  121 1    
   110   56  122 1    
   111   56  123 1    
   112   56  124 1    
   113   57   58 2    
   114   57   59 am   BACKBONE|DICT|INTERRES
   115   59   60 1    
   116   59  125 1    
   117   60   61 1    
   118   60   62 1    
   119   60  126 1    
   120   61  127 1    
   121   61  128 1    
   122   61  129 1    
   123   62   63 2    
   124   62   64 am   BACKBONE|DICT|INTERRES
   125   64   65 1    
   126   64  130 1    
   127   65   66 1    
   128   65   69 1    
   129   65  131 1    
   130   66   67 am   BACKBONE|DICT|INTERRES
   131   66   68 2    
   132   67  132 1    
   133   67  133 1    
   134   69   70 1    
   135   69  134 1    
   136   69  135 1    
   137   70   71 1    
   138   71  136 1    
   139   71  137 1    
@<TRIPOS>SUBSTRUCTURE
     1 UNK         1 GROUP             0       ****    0 ROOT    
