@<TRIPOS>MOLECULE
3R136
137   139    1
SMALL
USER_CHARGES


@<TRIPOS>ATOM
      1 CA         31.3245   19.7493   -0.8196 C.3       0 UNK        -0.1979 
      2 C          31.3215   21.0921   -1.5355 C.2       0 UNK         0.4864 
      3 O          32.3306   21.4689   -2.1331 O.2       0 UNK        -0.5359 
      4 N          30.1969   21.8118   -1.4789 N.am      1 UNK        -0.4318 
      5 CA         29.9779   23.1085   -2.1181 C.3       1 UNK         0.0824 
      6 C6         30.7303   24.2781   -1.4150 C.3       12 UNK        -0.0944 
      7 S7         30.0724   24.7378    0.2248 S.3       12 UNK        -0.2672 
      8 C8         31.1760   23.8084    1.3281 C.3       12 UNK         0.0333 
      9 C9         30.7480   23.9843    2.7744 C.ar      12 UNK        -0.0807 
     10 C10        31.5305   24.7285    3.6621 C.ar      12 UNK        -0.0894 
     11 C11        31.1216   24.9050    4.9874 C.ar      12 UNK        -0.0804 
     12 C12        29.9128   24.3466    5.4150 C.ar      12 UNK        -0.0824 
     13 C13        29.1094   23.6240    4.5269 C.ar      12 UNK        -0.0762 
     14 C14        29.5482   23.4195    3.2168 C.ar      12 UNK        -0.0782 
     15 C15        27.7439   23.1094    4.9654 C.3       12 UNK         0.0230 
     16 S16        26.3748   23.9967    4.1391 S.3       12 UNK        -0.2608 
     17 C17        26.8049   25.7399    4.4695 C.3       12 UNK        -0.0989 
     18 CA         27.4210   26.4177    3.2100 C.3       5 UNK         0.0716 
     19 N          26.4090   26.8527    2.2376 N.am      5 UNK        -0.4135 
     20 C          25.4948   27.8265    2.3985 C.2       4 UNK         0.5031 
     21 O          25.3823   28.5158    3.4123 O.2       4 UNK        -0.5229 
     22 CA         24.5120   28.0830    1.2383 C.3       4 UNK         0.0329 
     23 CB         25.0290   29.2208    0.3424 C.3       4 UNK        -0.2001 
     24 N          24.2546   26.9042    0.4119 N.am      4 UNK        -0.4303 
     25 C          23.6738   25.7706    0.8300 C.2       3 UNK         0.5044 
     26 O          23.1535   25.6398    1.9384 O.2       3 UNK        -0.5152 
     27 CA         23.6853   24.5703   -0.1403 C.3       3 UNK         0.0319 
     28 CB         22.2643   24.2779   -0.6508 C.3       3 UNK        -0.2001 
     29 N          24.5866   24.7002   -1.2953 N.am      3 UNK        -0.4354 
     30 C          25.9167   24.8616   -1.2442 C.2       2 UNK         0.4964 
     31 O          26.5518   25.0010   -0.1955 O.2       2 UNK        -0.5047 
     32 CA         26.6318   24.9699   -2.6030 C.3       2 UNK         0.0288 
     33 CB         26.5632   26.4155   -3.1244 C.3       2 UNK        -0.2113 
     34 N          28.0357   24.5643   -2.5237 N.am      2 UNK        -0.4145 
     35 C          28.4576   23.3145   -2.2897 C.2       1 UNK         0.5006 
     36 O          27.6975   22.3429   -2.2134 O.2       1 UNK        -0.5103 
     37 C          28.3953   27.5591    3.5701 C.2       5 UNK         0.5055 
     38 O          28.2228   28.2224    4.5952 O.2       5 UNK        -0.5220 
     39 N          29.4018   27.7700    2.7147 N.am      6 UNK        -0.4450 
     40 CA         30.4682   28.7455    2.9132 C.3       6 UNK         0.0367 
     41 CB         30.0343   30.1167    2.3697 C.3       6 UNK        -0.1929 
     42 C          31.7294   28.2590    2.1976 C.2       6 UNK         0.5070 
     43 O          31.6235   27.6463    1.1349 O.2       6 UNK        -0.5237 
     44 N          32.8966   28.5793    2.7651 N.am      7 UNK        -0.4739 
     45 CA         34.2003   28.3616    2.1378 C.3       7 UNK         0.0276 
     46 CB         35.2688   28.1747    3.2278 C.3       7 UNK        -0.1927 
     47 C          34.5570   29.5363    1.2128 C.2       7 UNK         0.5013 
     48 O          35.0153   29.3114    0.0923 O.2       7 UNK        -0.5193 
     49 N          34.3137   30.7625    1.6920 N.am      8 UNK        -0.4253 
     50 CA         34.5044   32.0193    0.9746 C.3       8 UNK         0.0242 
     51 CB         36.0005   32.3899    0.9183 C.3       8 UNK        -0.2000 
     52 C          33.6730   33.0735    1.7096 C.2       8 UNK         0.4948 
     53 O          34.1488   33.6367    2.6965 O.2       8 UNK        -0.5275 
     54 N          32.4108   33.2449    1.2886 N.am      9 UNK        -0.4246 
     55 CA         31.3470   34.0797    1.8832 C.3       9 UNK         0.0261 
     56 CB         31.7488   35.5669    1.9429 C.3       9 UNK        -0.1959 
     57 C          30.8347   33.5854    3.2527 C.2       9 UNK         0.5033 
     58 O          29.6312   33.6506    3.5049 O.2       9 UNK        -0.5390 
     59 N          31.7380   33.0595    4.0816 N.am      10 UNK        -0.4215 
     60 CA         31.4863   32.3133    5.3091 C.3       10 UNK         0.0240 
     61 CB         31.7069   33.2434    6.5159 C.3       10 UNK        -0.1982 
     62 C          32.4360   31.1048    5.3389 C.2       10 UNK         0.4970 
     63 O          33.2471   30.9343    4.4232 O.2       10 UNK        -0.4916 
     64 N          32.3199   30.2732    6.3784 N.am      11 UNK        -0.4279 
     65 CA         33.2294   29.1417    6.6380 C.3       11 UNK         0.1003 
     66 C          34.5794   29.5461    7.3010 C.2       11 UNK         0.5709 
     67 N          34.7729   30.7903    7.7229 N.am      11 UNK        -0.7358 
     68 O          35.4762   28.7152    7.4205 O.2       11 UNK        -0.4999 
     69 C69        32.5233   28.0132    7.4315 C.3       12 UNK        -0.0954 
     70 S70        31.1843   27.2490    6.4610 S.3       12 UNK        -0.2268 
     71 C71        31.9851   25.6955    5.9584 C.3       12 UNK         0.0203 
     72 H72        32.1060   19.7312   -0.0605 H         1 UNK         0.0888 
     73 H73        30.3721   19.5466   -0.3299 H         1 UNK         0.0888 
     74 H74        31.5190   18.9457   -1.5294 H         1 UNK         0.0888 
     75 H75        29.3662   21.4343   -1.0402 H         1 UNK         0.3017 
     76 H76        30.3695   23.0325   -3.1349 H         1 UNK         0.0873 
     77 H77        31.7907   24.0405   -1.3198 H         1 UNK         0.0745 
     78 H78        30.7037   25.1698   -2.0429 H         1 UNK         0.0745 
     79 H79        31.1522   22.7493    1.0703 H         1 UNK         0.0705 
     80 H80        32.2026   24.1474    1.1802 H         1 UNK         0.0705 
     81 H81        32.4554   25.1726    3.3197 H         1 UNK         0.1334 
     82 H82        29.5859   24.5045    6.4340 H         1 UNK         0.1417 
     83 H83        28.9278   22.8671    2.5236 H         1 UNK         0.1562 
     84 H84        27.6243   23.2021    6.0461 H         1 UNK         0.0748 
     85 H85        27.6670   22.0451    4.7386 H         1 UNK         0.0748 
     86 H86        27.4886   25.7716    5.3194 H         1 UNK         0.0940 
     87 H87        25.9122   26.2682    4.8067 H         1 UNK         0.0940 
     88 H88        28.0218   25.6736    2.6861 H         1 UNK         0.0703 
     89 H89        26.4067   26.3322    1.3657 H         1 UNK         0.3081 
     90 H90        23.5612   28.3945    1.6760 H         1 UNK         0.0719 
     91 H91        25.9694   28.9575   -0.1438 H         1 UNK         0.0809 
     92 H92        24.3073   29.4750   -0.4343 H         1 UNK         0.0809 
     93 H93        25.2064   30.1257    0.9255 H         1 UNK         0.0809 
     94 H94        24.6390   26.9130   -0.5208 H         1 UNK         0.2990 
     95 H95        24.0246   23.7075    0.4367 H         1 UNK         0.0690 
     96 H96        22.2360   23.3684   -1.2512 H         1 UNK         0.0788 
     97 H97        21.8784   25.0967   -1.2595 H         1 UNK         0.0788 
     98 H98        21.5708   24.1347    0.1794 H         1 UNK         0.0788 
     99 H99        24.1490   24.6312   -2.2033 H         1 UNK         0.2993 
    100 H100       26.1296   24.3108   -3.3148 H         1 UNK         0.0949 
    101 H101       27.0531   27.1137   -2.4439 H         1 UNK         0.0767 
    102 H102       27.0408   26.5080   -4.1002 H         1 UNK         0.0767 
    103 H103       25.5298   26.7448   -3.2416 H         1 UNK         0.0767 
    104 H104       28.7170   25.3085   -2.5142 H         1 UNK         0.3013 
    105 H105       29.5308   27.1653    1.9109 H         1 UNK         0.3121 
    106 H106       30.6903   28.8320    3.9786 H         1 UNK         0.0774 
    107 H107       29.7036   30.0520    1.3325 H         1 UNK         0.0815 
    108 H108       30.8622   30.8235    2.4021 H         1 UNK         0.0815 
    109 H109       29.2192   30.5386    2.9582 H         1 UNK         0.0815 
    110 H110       32.8955   29.1575    3.5975 H         1 UNK         0.2987 
    111 H111       34.1675   27.4516    1.5337 H         1 UNK         0.0949 
    112 H112       35.3616   29.0552    3.8651 H         1 UNK         0.0806 
    113 H113       35.0374   27.3221    3.8666 H         1 UNK         0.0806 
    114 H114       36.2479   27.9901    2.7837 H         1 UNK         0.0806 
    115 H115       33.9493   30.8524    2.6379 H         1 UNK         0.3010 
    116 H116       34.1270   31.9181   -0.0453 H         1 UNK         0.0829 
    117 H117       36.1425   33.3652    0.4514 H         1 UNK         0.0813 
    118 H118       36.4435   32.4356    1.9140 H         1 UNK         0.0813 
    119 H119       36.5690   31.6662    0.3342 H         1 UNK         0.0813 
    120 H120       32.1131   32.6963    0.4930 H         1 UNK         0.3038 
    121 H121       30.5023   34.0019    1.1966 H         1 UNK         0.0769 
    122 H122       32.5669   35.7442    2.6415 H         1 UNK         0.0811 
    123 H123       30.9089   36.1813    2.2700 H         1 UNK         0.0811 
    124 H124       32.0571   35.9343    0.9642 H         1 UNK         0.0811 
    125 H125       32.7083   33.0608    3.7704 H         1 UNK         0.3204 
    126 H126       30.4615   31.9357    5.3131 H         1 UNK         0.0748 
    127 H127       31.4839   32.7399    7.4571 H         1 UNK         0.0771 
    128 H128       32.7367   33.5999    6.5667 H         1 UNK         0.0771 
    129 H129       31.0570   34.1170    6.4607 H         1 UNK         0.0771 
    130 H130       31.6228   30.4528    7.0861 H         1 UNK         0.2980 
    131 H131       33.5151   28.7136    5.6759 H         1 UNK         0.0545 
    132 H132       34.0501   31.4843    7.6303 H         1 UNK         0.3459 
    133 H133       35.6560   31.0343    8.1427 H         1 UNK         0.3459 
    134 H134       32.1025   28.4030    8.3598 H         1 UNK         0.0616 
    135 H135       33.2294   27.2341    7.7253 H         1 UNK         0.0616 
    136 H136       32.9541   25.9241    5.5113 H         1 UNK         0.0634 
    137 H137       32.1834   25.0884    6.8428 H         1 UNK         0.0634 
@<TRIPOS>BOND
     1    1    2 1    
     2    1   72 1    
     3    1   73 1    
     4    1   74 1    
     5    2    3 2    
     6    2    4 am   BACKBONE|DICT|INTERRES
     7    4    5 1    
     8    4   75 1    
     9    5    6 1    
    10    5   35 1    
    11    5   76 1    
    12    6    7 1    
    13    6   77 1    
    14    6   78 1    
    15    7    8 1    
    16    8    9 1    
    17    8   79 1    
    18    8   80 1    
    19    9   10 ar   
    20    9   14 ar   
    21   10   11 ar   
    22   10   81 1    
    23   11   12 ar   
    24   11   71 1    
    25   12   13 ar   
    26   12   82 1    
    27   13   14 ar   
    28   13   15 1    
    29   14   83 1    
    30   15   16 1    
    31   15   84 1    
    32   15   85 1    
    33   16   17 1    
    34   17   18 1    
    35   17   86 1    
    36   17   87 1    
    37   18   19 1    
    38   18   37 1    
    39   18   88 1    
    40   19   20 am   BACKBONE|DICT|INTERRES
    41   19   89 1    
    42   20   21 2    
    43   20   22 1    
    44   22   23 1    
    45   22   24 1    
    46   22   90 1    
    47   23   91 1    
    48   23   92 1    
    49   23   93 1    
    50   24   25 am   BACKBONE|DICT|INTERRES
    51   24   94 1    
    52   25   26 2    
    53   25   27 1    
    54   27   28 1    
    55   27   29 1    
    56   27   95 1    
    57   28   96 1    
    58   28   97 1    
    59   28   98 1    
    60   29   30 am   BACKBONE|DICT|INTERRES
    61   29   99 1    
    62   30   31 2    
    63   30   32 1    
    64   32   33 1    
    65   32   34 1    
    66   32  100 1    
    67   33  101 1    
    68   33  102 1    
    69   33  103 1    
    70   34   35 am   BACKBONE|DICT|INTERRES
    71   34  104 1    
    72   35   36 2    
    73   37   38 2    
    74   37   39 am   BACKBONE|DICT|INTERRES
    75   39   40 1    
    76   39  105 1    
    77   40   41 1    
    78   40   42 1    
    79   40  106 1    
    80   41  107 1    
    81   41  108 1    
    82   41  109 1    
    83   42   43 2    
    84   42   44 am   BACKBONE|DICT|INTERRES
    85   44   45 1    
    86   44  110 1    
    87   45   46 1    
    88   45   47 1    
    89   45  111 1    
    90   46  112 1    
    91   46  113 1    
    92   46  114 1    
    93   47   48 2    
    94   47   49 am   BACKBONE|DICT|INTERRES
    95   49   50 1    
    96   49  115 1    
    97   50   51 1    
    98   50   52 1    
    99   50  116 1    
   100   51  117 1    
   101   51  118 1    
   102   51  119 1    
   103   52   53 2    
   104   52   54 am   BACKBONE|DICT|INTERRES
   105   54   55 1    
   106   54  120 1    
   107   55   56 1    
   108   55   57 1    
   109   55  121 1    
   110   56  122 1    
   111   56  123 1    
   112   56  124 1    
   113   57   58 2    
   114   57   59 am   BACKBONE|DICT|INTERRES
   115   59   60 1    
   116   59  125 1    
   117   60   61 1    
   118   60   62 1    
   119   60  126 1    
   120   61  127 1    
   121   61  128 1    
   122   61  129 1    
   123   62   63 2    
   124   62   64 am   BACKBONE|DICT|INTERRES
   125   64   65 1    
   126   64  130 1    
   127   65   66 1    
   128   65   69 1    
   129   65  131 1    
   130   66   67 am   BACKBONE|DICT|INTERRES
   131   66   68 2    
   132   67  132 1    
   133   67  133 1    
   134   69   70 1    
   135   69  134 1    
   136   69  135 1    
   137   70   71 1    
   138   71  136 1    
   139   71  137 1    
@<TRIPOS>SUBSTRUCTURE
     1 UNK         1 GROUP             0       ****    0 ROOT    
