@<TRIPOS>MOLECULE
3R136
137   139    1
SMALL
USER_CHARGES


@<TRIPOS>ATOM
      1 CA         28.9296   23.7356   -3.2244 C.3       0 UNK        -0.1979 
      2 C          28.8219   24.2264   -1.7897 C.2       0 UNK         0.4864 
      3 O          28.2970   25.3165   -1.5564 O.2       0 UNK        -0.5359 
      4 N          29.2981   23.4247   -0.8248 N.am      1 UNK        -0.4318 
      5 CA         29.3666   23.7245    0.6159 C.3       1 UNK         0.0824 
      6 C6         29.9814   22.5552    1.4206 C.3       12 UNK        -0.0944 
      7 S7         31.6479   22.0914    0.8430 S.3       12 UNK        -0.2672 
      8 C8         32.3311   21.2863    2.3267 C.3       12 UNK         0.0333 
      9 C9         32.9643   22.2974    3.2706 C.ar      12 UNK        -0.0807 
     10 C10        34.3072   22.6503    3.1137 C.ar      12 UNK        -0.0894 
     11 C11        34.9016   23.5878    3.9635 C.ar      12 UNK        -0.0804 
     12 C12        34.1443   24.1628    4.9900 C.ar      12 UNK        -0.0824 
     13 C13        32.7958   23.8264    5.1484 C.ar      12 UNK        -0.0762 
     14 C14        32.2161   22.8819    4.2964 C.ar      12 UNK        -0.0782 
     15 C15        31.9579   24.4939    6.2297 C.3       12 UNK         0.0230 
     16 S16        31.5456   26.2175    5.8086 S.3       12 UNK        -0.2608 
     17 C17        30.5734   26.0169    4.2770 C.3       12 UNK        -0.0989 
     18 CA         29.8185   27.3159    3.8837 C.3       5 UNK         0.0716 
     19 N          29.5704   27.3875    2.4459 N.am      5 UNK        -0.4135 
     20 C          30.2980   28.0859    1.5685 C.2       4 UNK         0.5031 
     21 O          31.3620   28.6327    1.8583 O.2       4 UNK        -0.5229 
     22 CA         29.7719   28.1984    0.1237 C.3       4 UNK         0.0329 
     23 CB         30.7234   27.5075   -0.8649 C.3       4 UNK        -0.2001 
     24 N          28.4132   27.6902   -0.0978 N.am      4 UNK        -0.4303 
     25 C          27.2865   28.2545    0.3601 C.2       3 UNK         0.5044 
     26 O          27.2679   29.1890    1.1595 O.2       3 UNK        -0.5152 
     27 CA         25.9587   27.6627   -0.1326 C.3       3 UNK         0.0319 
     28 CB         25.7074   28.0384   -1.6020 C.3       3 UNK        -0.2001 
     29 N          25.9722   26.2083    0.0068 N.am      3 UNK        -0.4354 
     30 C          25.2099   25.5109    0.8609 C.2       2 UNK         0.4964 
     31 O          24.2856   25.9974    1.5120 O.2       2 UNK        -0.5047 
     32 CA         25.5313   24.0132    1.0403 C.3       2 UNK         0.0288 
     33 CB         24.5496   23.1519    0.2290 C.3       2 UNK        -0.2113 
     34 N          26.9032   23.6433    0.6781 N.am      2 UNK        -0.4145 
     35 C          28.0171   24.1322    1.2448 C.2       1 UNK         0.5006 
     36 O          28.0113   24.9138    2.1961 O.2       1 UNK        -0.5103 
     37 C          28.4868   27.5369    4.6333 C.2       5 UNK         0.5055 
     38 O          28.2239   26.8727    5.6378 O.2       5 UNK        -0.5220 
     39 N          27.6547   28.4609    4.1294 N.am      6 UNK        -0.4450 
     40 CA         26.3580   28.8119    4.7120 C.3       6 UNK         0.0367 
     41 CB         25.2640   27.8701    4.1811 C.3       6 UNK        -0.1929 
     42 C          25.9933   30.2783    4.4470 C.2       6 UNK         0.5070 
     43 O          25.5605   30.9644    5.3735 O.2       6 UNK        -0.5237 
     44 N          26.1620   30.7296    3.1980 N.am      7 UNK        -0.4739 
     45 CA         25.8997   32.0953    2.7501 C.3       7 UNK         0.0276 
     46 CB         25.1707   32.0376    1.3903 C.3       7 UNK        -0.1927 
     47 C          27.2272   32.8724    2.7240 C.2       7 UNK         0.5013 
     48 O          27.7864   33.1389    3.7893 O.2       7 UNK        -0.5193 
     49 N          27.7093   33.2294    1.5265 N.am      8 UNK        -0.4253 
     50 CA         29.0224   33.8378    1.3086 C.3       8 UNK         0.0242 
     51 CB         29.0480   34.4876   -0.0850 C.3       8 UNK        -0.2000 
     52 C          30.1388   32.7873    1.4349 C.2       8 UNK         0.4948 
     53 O          29.9093   31.6218    1.1075 O.2       8 UNK        -0.5275 
     54 N          31.3261   33.2395    1.8643 N.am      9 UNK        -0.4246 
     55 CA         32.5289   32.4448    2.1552 C.3       9 UNK         0.0261 
     56 CB         33.0277   31.6983    0.8951 C.3       9 UNK        -0.1959 
     57 C          32.3497   31.5219    3.3808 C.2       9 UNK         0.5033 
     58 O          31.3934   31.6821    4.1441 O.2       9 UNK        -0.5390 
     59 N          33.3100   30.6134    3.5881 N.am      10 UNK        -0.4215 
     60 CA         33.3387   29.6698    4.7074 C.3       10 UNK         0.0240 
     61 CB         33.9604   30.3424    5.9495 C.3       10 UNK        -0.1982 
     62 C          34.0445   28.3602    4.3171 C.2       10 UNK         0.4970 
     63 O          34.7040   27.7585    5.1657 O.2       10 UNK        -0.4916 
     64 N          33.8974   27.9469    3.0521 N.am      11 UNK        -0.4279 
     65 CA         34.4124   26.6993    2.4776 C.3       11 UNK         0.1003 
     66 C          33.9110   26.5618    1.0209 C.2       11 UNK         0.5709 
     67 N          33.2773   25.4478    0.6774 N.am      11 UNK        -0.7358 
     68 O          34.1271   27.4451    0.1939 O.2       11 UNK        -0.4999 
     69 C69        35.9622   26.5554    2.5772 C.3       12 UNK        -0.0954 
     70 S70        36.5790   24.8858    2.1721 S.3       12 UNK        -0.2268 
     71 C71        36.3530   23.9941    3.7474 C.3       12 UNK         0.0203 
     72 H72        29.5187   24.4369   -3.8145 H         1 UNK         0.0888 
     73 H73        29.4038   22.7564   -3.2866 H         1 UNK         0.0888 
     74 H74        27.9381   23.6633   -3.6704 H         1 UNK         0.0888 
     75 H75        29.7235   22.5468   -1.0891 H         1 UNK         0.3017 
     76 H76        30.0268   24.5874    0.7235 H         1 UNK         0.0873 
     77 H77        30.0400   22.8253    2.4750 H         1 UNK         0.0745 
     78 H78        29.3439   21.6703    1.3664 H         1 UNK         0.0745 
     79 H79        31.5520   20.7167    2.8359 H         1 UNK         0.0705 
     80 H80        33.0807   20.5578    2.0137 H         1 UNK         0.0705 
     81 H81        34.8886   22.2091    2.3152 H         1 UNK         0.1334 
     82 H82        34.5895   24.9042    5.6404 H         1 UNK         0.1417 
     83 H83        31.1781   22.6107    4.4278 H         1 UNK         0.1562 
     84 H84        32.5086   24.4832    7.1714 H         1 UNK         0.0748 
     85 H85        31.0359   23.9385    6.4090 H         1 UNK         0.0748 
     86 H86        29.8884   25.1718    4.3700 H         1 UNK         0.0940 
     87 H87        31.2783   25.7448    3.4895 H         1 UNK         0.0940 
     88 H88        30.4396   28.1693    4.1621 H         1 UNK         0.0703 
     89 H89        28.7415   26.8979    2.1279 H         1 UNK         0.3081 
     90 H90        29.7594   29.2625   -0.1187 H         1 UNK         0.0719 
     91 H91        30.8273   26.4446   -0.6495 H         1 UNK         0.0809 
     92 H92        30.3742   27.6095   -1.8925 H         1 UNK         0.0809 
     93 H93        31.7176   27.9523   -0.8196 H         1 UNK         0.0809 
     94 H94        28.3395   26.8913   -0.7264 H         1 UNK         0.2990 
     95 H95        25.1601   28.1018    0.4691 H         1 UNK         0.0690 
     96 H96        24.7343   27.6796   -1.9377 H         1 UNK         0.0788 
     97 H97        26.4643   27.6180   -2.2657 H         1 UNK         0.0788 
     98 H98        25.7178   29.1211   -1.7354 H         1 UNK         0.0788 
     99 H99        26.7034   25.7185   -0.5007 H         1 UNK         0.2993 
    100 H100       25.3992   23.7839    2.1000 H         1 UNK         0.0949 
    101 H101       24.7025   22.0891    0.4183 H         1 UNK         0.0767 
    102 H102       23.5167   23.3807    0.4958 H         1 UNK         0.0767 
    103 H103       24.6547   23.3226   -0.8433 H         1 UNK         0.0767 
    104 H104       27.0096   23.0134   -0.1038 H         1 UNK         0.3013 
    105 H105       27.9336   28.9762    3.3027 H         1 UNK         0.3121 
    106 H106       26.4143   28.6941    5.7967 H         1 UNK         0.0774 
    107 H107       25.1581   27.9544    3.0995 H         1 UNK         0.0815 
    108 H108       24.2956   28.1060    4.6235 H         1 UNK         0.0815 
    109 H109       25.4836   26.8282    4.4147 H         1 UNK         0.0815 
    110 H110       26.5390   30.1065    2.4846 H         1 UNK         0.2987 
    111 H111       25.2443   32.6082    3.4575 H         1 UNK         0.0949 
    112 H112       25.7454   31.5005    0.6344 H         1 UNK         0.0806 
    113 H113       24.2108   31.5301    1.4880 H         1 UNK         0.0806 
    114 H114       24.9620   33.0383    1.0094 H         1 UNK         0.0806 
    115 H115       27.2130   32.9240    0.7028 H         1 UNK         0.3010 
    116 H116       29.1769   34.6139    2.0617 H         1 UNK         0.0829 
    117 H117       28.2708   35.2457   -0.1847 H         1 UNK         0.0813 
    118 H118       30.0041   34.9790   -0.2701 H         1 UNK         0.0813 
    119 H119       28.9031   33.7507   -0.8763 H         1 UNK         0.0813 
    120 H120       31.3921   34.2160    2.1156 H         1 UNK         0.3038 
    121 H121       33.2970   33.1679    2.4336 H         1 UNK         0.0769 
    122 H122       32.3885   30.8509    0.6442 H         1 UNK         0.0811 
    123 H123       34.0387   31.3135    1.0290 H         1 UNK         0.0811 
    124 H124       33.0546   32.3598    0.0292 H         1 UNK         0.0811 
    125 H125       34.0707   30.5428    2.9264 H         1 UNK         0.3204 
    126 H126       32.3143   29.3864    4.9557 H         1 UNK         0.0748 
    127 H127       33.9404   29.6736    6.8111 H         1 UNK         0.0771 
    128 H128       34.9995   30.6232    5.7746 H         1 UNK         0.0771 
    129 H129       33.4126   31.2415    6.2320 H         1 UNK         0.0771 
    130 H130       33.2325   28.4355    2.4557 H         1 UNK         0.2980 
    131 H131       33.9411   25.9109    3.0574 H         1 UNK         0.0545 
    132 H132       32.9812   25.3326   -0.2776 H         1 UNK         0.3459 
    133 H133       33.1482   24.6965    1.3373 H         1 UNK         0.3459 
    134 H134       36.3276   26.7914    3.5749 H         1 UNK         0.0616 
    135 H135       36.4503   27.2718    1.9142 H         1 UNK         0.0616 
    136 H136       36.7199   24.6061    4.5728 H         1 UNK         0.0634 
    137 H137       36.9719   23.0960    3.7323 H         1 UNK         0.0634 
@<TRIPOS>BOND
     1    1    2 1    
     2    1   72 1    
     3    1   73 1    
     4    1   74 1    
     5    2    3 2    
     6    2    4 am   BACKBONE|DICT|INTERRES
     7    4    5 1    
     8    4   75 1    
     9    5    6 1    
    10    5   35 1    
    11    5   76 1    
    12    6    7 1    
    13    6   77 1    
    14    6   78 1    
    15    7    8 1    
    16    8    9 1    
    17    8   79 1    
    18    8   80 1    
    19    9   10 ar   
    20    9   14 ar   
    21   10   11 ar   
    22   10   81 1    
    23   11   12 ar   
    24   11   71 1    
    25   12   13 ar   
    26   12   82 1    
    27   13   14 ar   
    28   13   15 1    
    29   14   83 1    
    30   15   16 1    
    31   15   84 1    
    32   15   85 1    
    33   16   17 1    
    34   17   18 1    
    35   17   86 1    
    36   17   87 1    
    37   18   19 1    
    38   18   37 1    
    39   18   88 1    
    40   19   20 am   BACKBONE|DICT|INTERRES
    41   19   89 1    
    42   20   21 2    
    43   20   22 1    
    44   22   23 1    
    45   22   24 1    
    46   22   90 1    
    47   23   91 1    
    48   23   92 1    
    49   23   93 1    
    50   24   25 am   BACKBONE|DICT|INTERRES
    51   24   94 1    
    52   25   26 2    
    53   25   27 1    
    54   27   28 1    
    55   27   29 1    
    56   27   95 1    
    57   28   96 1    
    58   28   97 1    
    59   28   98 1    
    60   29   30 am   BACKBONE|DICT|INTERRES
    61   29   99 1    
    62   30   31 2    
    63   30   32 1    
    64   32   33 1    
    65   32   34 1    
    66   32  100 1    
    67   33  101 1    
    68   33  102 1    
    69   33  103 1    
    70   34   35 am   BACKBONE|DICT|INTERRES
    71   34  104 1    
    72   35   36 2    
    73   37   38 2    
    74   37   39 am   BACKBONE|DICT|INTERRES
    75   39   40 1    
    76   39  105 1    
    77   40   41 1    
    78   40   42 1    
    79   40  106 1    
    80   41  107 1    
    81   41  108 1    
    82   41  109 1    
    83   42   43 2    
    84   42   44 am   BACKBONE|DICT|INTERRES
    85   44   45 1    
    86   44  110 1    
    87   45   46 1    
    88   45   47 1    
    89   45  111 1    
    90   46  112 1    
    91   46  113 1    
    92   46  114 1    
    93   47   48 2    
    94   47   49 am   BACKBONE|DICT|INTERRES
    95   49   50 1    
    96   49  115 1    
    97   50   51 1    
    98   50   52 1    
    99   50  116 1    
   100   51  117 1    
   101   51  118 1    
   102   51  119 1    
   103   52   53 2    
   104   52   54 am   BACKBONE|DICT|INTERRES
   105   54   55 1    
   106   54  120 1    
   107   55   56 1    
   108   55   57 1    
   109   55  121 1    
   110   56  122 1    
   111   56  123 1    
   112   56  124 1    
   113   57   58 2    
   114   57   59 am   BACKBONE|DICT|INTERRES
   115   59   60 1    
   116   59  125 1    
   117   60   61 1    
   118   60   62 1    
   119   60  126 1    
   120   61  127 1    
   121   61  128 1    
   122   61  129 1    
   123   62   63 2    
   124   62   64 am   BACKBONE|DICT|INTERRES
   125   64   65 1    
   126   64  130 1    
   127   65   66 1    
   128   65   69 1    
   129   65  131 1    
   130   66   67 am   BACKBONE|DICT|INTERRES
   131   66   68 2    
   132   67  132 1    
   133   67  133 1    
   134   69   70 1    
   135   69  134 1    
   136   69  135 1    
   137   70   71 1    
   138   71  136 1    
   139   71  137 1    
@<TRIPOS>SUBSTRUCTURE
     1 UNK         1 GROUP             0       ****    0 ROOT    
