@<TRIPOS>MOLECULE
3R136
137   139    1
SMALL
USER_CHARGES


@<TRIPOS>ATOM
      1 CA         28.1627   17.8292    2.4130 C.3       0 UNK        -0.1979 
      2 C          28.1890   19.0826    1.5505 C.2       0 UNK         0.4864 
      3 O          27.8514   19.0184    0.3674 O.2       0 UNK        -0.5359 
      4 N          28.5851   20.2189    2.1323 N.am      1 UNK        -0.4318 
      5 CA         28.6611   21.5212    1.4774 C.3       1 UNK         0.0824 
      6 C6         29.9894   21.6859    0.6885 C.3       12 UNK        -0.0944 
      7 S7         30.3253   23.3700    0.0575 S.3       12 UNK        -0.2672 
      8 C8         31.9520   23.6813    0.8279 C.3       12 UNK         0.0333 
      9 C9         32.5394   25.0580    0.5262 C.ar      12 UNK        -0.0807 
     10 C10        33.2877   25.7137    1.5095 C.ar      12 UNK        -0.0894 
     11 C11        33.8580   26.9693    1.2639 C.ar      12 UNK        -0.0804 
     12 C12        33.6774   27.5640    0.0100 C.ar      12 UNK        -0.0824 
     13 C13        32.9577   26.9090   -0.9946 C.ar      12 UNK        -0.0762 
     14 C14        32.3960   25.6566   -0.7307 C.ar      12 UNK        -0.0782 
     15 C15        32.8345   27.5216   -2.3845 C.3       12 UNK         0.0230 
     16 S16        31.1091   27.8731   -2.8483 S.3       12 UNK        -0.2608 
     17 C17        30.7723   29.3647   -1.8566 C.3       12 UNK        -0.0989 
     18 CA         29.2930   29.8281   -1.9574 C.3       5 UNK         0.0716 
     19 N          28.3517   28.7568   -1.6055 N.am      5 UNK        -0.4135 
     20 C          27.2339   28.4582   -2.2779 C.2       4 UNK         0.5031 
     21 O          26.8574   29.0492   -3.2904 O.2       4 UNK        -0.5229 
     22 CA         26.3687   27.3229   -1.7006 C.3       4 UNK         0.0329 
     23 CB         26.8924   25.9584   -2.1787 C.3       4 UNK        -0.2001 
     24 N          26.2595   27.3060   -0.2357 N.am      4 UNK        -0.4303 
     25 C          25.8700   28.3158    0.5543 C.2       3 UNK         0.5044 
     26 O          25.6328   29.4459    0.1295 O.2       3 UNK        -0.5152 
     27 CA         25.7308   28.0581    2.0718 C.3       3 UNK         0.0319 
     28 CB         24.2437   27.9671    2.4646 C.3       3 UNK        -0.2001 
     29 N          26.4815   26.9208    2.6346 N.am      3 UNK        -0.4354 
     30 C          26.3611   25.6158    2.3549 C.2       2 UNK         0.4964 
     31 O          25.6261   25.1610    1.4752 O.2       2 UNK        -0.5047 
     32 CA         27.2078   24.6488    3.1859 C.3       2 UNK         0.0288 
     33 CB         26.4446   24.2105    4.4508 C.3       2 UNK        -0.2113 
     34 N          27.5218   23.5014    2.3426 N.am      2 UNK        -0.4145 
     35 C          28.4555   22.5745    2.5773 C.2       1 UNK         0.5006 
     36 O          29.1436   22.5224    3.5999 O.2       1 UNK        -0.5103 
     37 C          29.0474   31.0939   -1.1048 C.2       5 UNK         0.5055 
     38 O          29.9565   31.9166   -0.9820 O.2       5 UNK        -0.5220 
     39 N          27.8656   31.2120   -0.4751 N.am      6 UNK        -0.4450 
     40 CA         27.4370   32.2168    0.5106 C.3       6 UNK         0.0367 
     41 CB         27.5172   33.6546   -0.0402 C.3       6 UNK        -0.1929 
     42 C          28.1641   32.0795    1.8589 C.2       6 UNK         0.5070 
     43 O          27.5097   31.9660    2.8944 O.2       6 UNK        -0.5237 
     44 N          29.5002   32.0529    1.8167 N.am      7 UNK        -0.4739 
     45 CA         30.3851   31.8429    2.9625 C.3       7 UNK         0.0276 
     46 CB         31.7045   32.5920    2.7098 C.3       7 UNK        -0.1927 
     47 C          30.6647   30.3571    3.2471 C.2       7 UNK         0.5013 
     48 O          31.3502   30.0693    4.2273 O.2       7 UNK        -0.5193 
     49 N          30.1757   29.4391    2.3991 N.am      8 UNK        -0.4253 
     50 CA         30.4029   27.9947    2.5171 C.3       8 UNK         0.0242 
     51 CB         29.7461   27.2491    1.3452 C.3       8 UNK        -0.2000 
     52 C          29.9241   27.4292    3.8643 C.2       8 UNK         0.4948 
     53 O          28.7732   27.6608    4.2395 O.2       8 UNK        -0.5275 
     54 N          30.8292   26.7087    4.5384 N.am      9 UNK        -0.4246 
     55 CA         30.7521   26.1434    5.8927 C.3       9 UNK         0.0261 
     56 CB         29.4546   25.3515    6.1541 C.3       9 UNK        -0.1959 
     57 C          31.0682   27.1423    7.0224 C.2       9 UNK         0.5033 
     58 O          31.2410   26.6979    8.1589 O.2       9 UNK        -0.5390 
     59 N          31.2003   28.4402    6.7139 N.am      10 UNK        -0.4215 
     60 CA         31.8050   29.4343    7.6048 C.3       10 UNK         0.0240 
     61 CB         31.0250   30.7602    7.5421 C.3       10 UNK        -0.1982 
     62 C          33.2766   29.6126    7.2061 C.2       10 UNK         0.4970 
     63 O          34.1619   29.3795    8.0291 O.2       10 UNK        -0.4916 
     64 N          33.4939   29.9627    5.9310 N.am      11 UNK        -0.4279 
     65 CA         34.7780   29.9810    5.2122 C.3       11 UNK         0.1003 
     66 C          35.8617   30.9403    5.7925 C.2       11 UNK         0.5709 
     67 N          35.4926   31.9554    6.5645 N.am      11 UNK        -0.7358 
     68 O          37.0493   30.7902    5.5137 O.2       11 UNK        -0.4999 
     69 C69        35.3054   28.5454    4.9254 C.3       12 UNK        -0.0954 
     70 S70        34.0897   27.5275    4.0151 S.3       12 UNK        -0.2268 
     71 C71        34.7231   27.6706    2.3111 C.3       12 UNK         0.0203 
     72 H72        28.4880   18.0297    3.4337 H         1 UNK         0.0888 
     73 H73        27.1527   17.4220    2.4528 H         1 UNK         0.0888 
     74 H74        28.8204   17.0697    1.9910 H         1 UNK         0.0888 
     75 H75        28.8313   20.2361    3.1144 H         1 UNK         0.3017 
     76 H76        27.8316   21.6063    0.7714 H         1 UNK         0.0873 
     77 H77        30.8255   21.3668    1.3134 H         1 UNK         0.0745 
     78 H78        29.9897   21.0070   -0.1656 H         1 UNK         0.0745 
     79 H79        32.6579   22.9225    0.4874 H         1 UNK         0.0705 
     80 H80        31.8458   23.5515    1.9065 H         1 UNK         0.0705 
     81 H81        33.4402   25.2351    2.4670 H         1 UNK         0.1334 
     82 H82        34.1276   28.5256   -0.1963 H         1 UNK         0.1417 
     83 H83        31.8505   25.1475   -1.5135 H         1 UNK         0.1562 
     84 H84        33.2540   26.8243   -3.1110 H         1 UNK         0.0748 
     85 H85        33.4238   28.4362   -2.4667 H         1 UNK         0.0748 
     86 H86        31.4406   30.1512   -2.2134 H         1 UNK         0.0940 
     87 H87        31.0567   29.1789   -0.8201 H         1 UNK         0.0940 
     88 H88        29.1227   30.1307   -2.9928 H         1 UNK         0.0703 
     89 H89        28.5853   28.1951   -0.8023 H         1 UNK         0.3081 
     90 H90        25.3583   27.4563   -2.0922 H         1 UNK         0.0719 
     91 H91        27.8837   25.7415   -1.7777 H         1 UNK         0.0809 
     92 H92        26.2256   25.1499   -1.8781 H         1 UNK         0.0809 
     93 H93        26.9669   25.9268   -3.2668 H         1 UNK         0.0809 
     94 H94        26.3152   26.3954    0.2096 H         1 UNK         0.2990 
     95 H95        26.1446   28.9421    2.5605 H         1 UNK         0.0690 
     96 H96        24.1236   27.8904    3.5453 H         1 UNK         0.0788 
     97 H97        23.7555   27.1041    2.0105 H         1 UNK         0.0788 
     98 H98        23.6985   28.8551    2.1415 H         1 UNK         0.0788 
     99 H99        27.1705   27.1852    3.3382 H         1 UNK         0.2993 
    100 H100       28.1412   25.1387    3.4619 H         1 UNK         0.0949 
    101 H101       27.0347   23.5281    5.0624 H         1 UNK         0.0767 
    102 H102       26.1999   25.0708    5.0752 H         1 UNK         0.0767 
    103 H103       25.5085   23.7094    4.2010 H         1 UNK         0.0767 
    104 H104       26.9907   23.4785    1.4800 H         1 UNK         0.3013 
    105 H105       27.1797   30.4756   -0.6155 H         1 UNK         0.3121 
    106 H106       26.3833   32.0069    0.7024 H         1 UNK         0.0774 
    107 H107       27.0818   34.3622    0.6664 H         1 UNK         0.0815 
    108 H108       28.5435   33.9741   -0.2211 H         1 UNK         0.0815 
    109 H109       26.9663   33.7507   -0.9756 H         1 UNK         0.0815 
    110 H110       29.9363   32.1433    0.9014 H         1 UNK         0.2987 
    111 H111       29.9206   32.2595    3.8590 H         1 UNK         0.0949 
    112 H112       32.2265   32.2052    1.8336 H         1 UNK         0.0806 
    113 H113       31.5316   33.6570    2.5544 H         1 UNK         0.0806 
    114 H114       32.3807   32.4973    3.5608 H         1 UNK         0.0806 
    115 H115       29.5954   29.7635    1.6432 H         1 UNK         0.3010 
    116 H116       31.4800   27.8420    2.4451 H         1 UNK         0.0829 
    117 H117       30.2784   27.4303    0.4139 H         1 UNK         0.0813 
    118 H118       29.7639   26.1697    1.5048 H         1 UNK         0.0813 
    119 H119       28.7088   27.5440    1.2120 H         1 UNK         0.0813 
    120 H120       31.7458   26.6237    4.1172 H         1 UNK         0.3038 
    121 H121       31.5664   25.4180    5.9298 H         1 UNK         0.0769 
    122 H122       28.5699   25.9874    6.1496 H         1 UNK         0.0811 
    123 H123       29.4882   24.8632    7.1287 H         1 UNK         0.0811 
    124 H124       29.3204   24.5650    5.4134 H         1 UNK         0.0811 
    125 H125       31.0623   28.7304    5.7514 H         1 UNK         0.3204 
    126 H126       31.7776   29.0874    8.6400 H         1 UNK         0.0748 
    127 H127       31.4642   31.4990    8.2136 H         1 UNK         0.0771 
    128 H128       31.0150   31.1958    6.5435 H         1 UNK         0.0771 
    129 H129       29.9891   30.6191    7.8509 H         1 UNK         0.0771 
    130 H130       32.6821   30.1116    5.3329 H         1 UNK         0.2980 
    131 H131       34.5416   30.4216    4.2431 H         1 UNK         0.0545 
    132 H132       34.5221   32.0909    6.7970 H         1 UNK         0.3459 
    133 H133       36.1941   32.5801    6.9292 H         1 UNK         0.3459 
    134 H134       35.5468   28.0373    5.8602 H         1 UNK         0.0616 
    135 H135       36.2325   28.5770    4.3507 H         1 UNK         0.0616 
    136 H136       34.8164   28.7313    2.0723 H         1 UNK         0.0634 
    137 H137       35.7281   27.2491    2.2695 H         1 UNK         0.0634 
@<TRIPOS>BOND
     1    1    2 1    
     2    1   72 1    
     3    1   73 1    
     4    1   74 1    
     5    2    3 2    
     6    2    4 am   BACKBONE|DICT|INTERRES
     7    4    5 1    
     8    4   75 1    
     9    5    6 1    
    10    5   35 1    
    11    5   76 1    
    12    6    7 1    
    13    6   77 1    
    14    6   78 1    
    15    7    8 1    
    16    8    9 1    
    17    8   79 1    
    18    8   80 1    
    19    9   10 ar   
    20    9   14 ar   
    21   10   11 ar   
    22   10   81 1    
    23   11   12 ar   
    24   11   71 1    
    25   12   13 ar   
    26   12   82 1    
    27   13   14 ar   
    28   13   15 1    
    29   14   83 1    
    30   15   16 1    
    31   15   84 1    
    32   15   85 1    
    33   16   17 1    
    34   17   18 1    
    35   17   86 1    
    36   17   87 1    
    37   18   19 1    
    38   18   37 1    
    39   18   88 1    
    40   19   20 am   BACKBONE|DICT|INTERRES
    41   19   89 1    
    42   20   21 2    
    43   20   22 1    
    44   22   23 1    
    45   22   24 1    
    46   22   90 1    
    47   23   91 1    
    48   23   92 1    
    49   23   93 1    
    50   24   25 am   BACKBONE|DICT|INTERRES
    51   24   94 1    
    52   25   26 2    
    53   25   27 1    
    54   27   28 1    
    55   27   29 1    
    56   27   95 1    
    57   28   96 1    
    58   28   97 1    
    59   28   98 1    
    60   29   30 am   BACKBONE|DICT|INTERRES
    61   29   99 1    
    62   30   31 2    
    63   30   32 1    
    64   32   33 1    
    65   32   34 1    
    66   32  100 1    
    67   33  101 1    
    68   33  102 1    
    69   33  103 1    
    70   34   35 am   BACKBONE|DICT|INTERRES
    71   34  104 1    
    72   35   36 2    
    73   37   38 2    
    74   37   39 am   BACKBONE|DICT|INTERRES
    75   39   40 1    
    76   39  105 1    
    77   40   41 1    
    78   40   42 1    
    79   40  106 1    
    80   41  107 1    
    81   41  108 1    
    82   41  109 1    
    83   42   43 2    
    84   42   44 am   BACKBONE|DICT|INTERRES
    85   44   45 1    
    86   44  110 1    
    87   45   46 1    
    88   45   47 1    
    89   45  111 1    
    90   46  112 1    
    91   46  113 1    
    92   46  114 1    
    93   47   48 2    
    94   47   49 am   BACKBONE|DICT|INTERRES
    95   49   50 1    
    96   49  115 1    
    97   50   51 1    
    98   50   52 1    
    99   50  116 1    
   100   51  117 1    
   101   51  118 1    
   102   51  119 1    
   103   52   53 2    
   104   52   54 am   BACKBONE|DICT|INTERRES
   105   54   55 1    
   106   54  120 1    
   107   55   56 1    
   108   55   57 1    
   109   55  121 1    
   110   56  122 1    
   111   56  123 1    
   112   56  124 1    
   113   57   58 2    
   114   57   59 am   BACKBONE|DICT|INTERRES
   115   59   60 1    
   116   59  125 1    
   117   60   61 1    
   118   60   62 1    
   119   60  126 1    
   120   61  127 1    
   121   61  128 1    
   122   61  129 1    
   123   62   63 2    
   124   62   64 am   BACKBONE|DICT|INTERRES
   125   64   65 1    
   126   64  130 1    
   127   65   66 1    
   128   65   69 1    
   129   65  131 1    
   130   66   67 am   BACKBONE|DICT|INTERRES
   131   66   68 2    
   132   67  132 1    
   133   67  133 1    
   134   69   70 1    
   135   69  134 1    
   136   69  135 1    
   137   70   71 1    
   138   71  136 1    
   139   71  137 1    
@<TRIPOS>SUBSTRUCTURE
     1 UNK         1 GROUP             0       ****    0 ROOT    
