@<TRIPOS>MOLECULE
3R136
137   139    1
SMALL
USER_CHARGES


@<TRIPOS>ATOM
      1 CA         30.9214   21.3564    1.3949 C.3       0 UNK        -0.1979 
      2 C          30.9536   21.9670    0.0015 C.2       0 UNK         0.4864 
      3 O          30.9130   21.2356   -0.9885 O.2       0 UNK        -0.5359 
      4 N          31.0281   23.3020   -0.0788 N.am      1 UNK        -0.4318 
      5 CA         31.0112   24.0835   -1.3221 C.3       1 UNK         0.0824 
      6 C6         31.4440   25.5547   -1.0837 C.3       12 UNK        -0.0944 
      7 S7         30.4637   26.4122    0.2006 S.3       12 UNK        -0.2672 
      8 C8         31.6417   26.4483    1.5831 C.3       12 UNK         0.0333 
      9 C9         30.9437   26.9027    2.8516 C.ar      12 UNK        -0.0807 
     10 C10        30.9252   28.2552    3.2047 C.ar      12 UNK        -0.0894 
     11 C11        30.2521   28.6750    4.3552 C.ar      12 UNK        -0.0804 
     12 C12        29.5973   27.7322    5.1535 C.ar      12 UNK        -0.0824 
     13 C13        29.5957   26.3793    4.8000 C.ar      12 UNK        -0.0762 
     14 C14        30.2839   25.9686    3.6558 C.ar      12 UNK        -0.0782 
     15 C15        28.8162   25.3665    5.6293 C.3       12 UNK         0.0230 
     16 S16        27.2786   24.8368    4.7958 S.3       12 UNK        -0.2608 
     17 C17        26.4302   26.4328    4.5469 C.3       12 UNK        -0.0989 
     18 CA         26.6130   26.9480    3.0852 C.3       5 UNK         0.0716 
     19 N          25.5296   26.5194    2.1897 N.am      5 UNK        -0.4135 
     20 C          24.2614   26.9679    2.1974 C.2       4 UNK         0.5031 
     21 O          23.8223   27.7820    3.0104 O.2       4 UNK        -0.5229 
     22 CA         23.3040   26.4389    1.1120 C.3       4 UNK         0.0329 
     23 CB         23.1945   27.4548   -0.0376 C.3       4 UNK        -0.2001 
     24 N          23.6910   25.1403    0.5624 N.am      4 UNK        -0.4303 
     25 C          23.6604   23.9780    1.2293 C.2       3 UNK         0.5044 
     26 O          23.2094   23.8533    2.3682 O.2       3 UNK        -0.5152 
     27 CA         24.2480   22.7469    0.5108 C.3       3 UNK         0.0319 
     28 CB         23.1208   21.8603   -0.0433 C.3       3 UNK        -0.2001 
     29 N          25.1878   23.0644   -0.5743 N.am      3 UNK        -0.4354 
     30 C          26.3460   23.7203   -0.4210 C.2       2 UNK         0.4964 
     31 O          26.7406   24.1821    0.6542 O.2       2 UNK        -0.5047 
     32 CA         27.1748   23.9530   -1.6863 C.3       2 UNK         0.0288 
     33 CB         26.7228   25.2428   -2.3989 C.3       2 UNK        -0.2113 
     34 N          28.5659   24.0591   -1.2711 N.am      2 UNK        -0.4145 
     35 C          29.6514   23.9967   -2.0492 C.2       1 UNK         0.5006 
     36 O          29.6170   23.8574   -3.2735 O.2       1 UNK        -0.5103 
     37 C          26.8557   28.4720    2.9834 C.2       5 UNK         0.5055 
     38 O          26.6717   29.2059    3.9577 O.2       5 UNK        -0.5220 
     39 N          27.2456   28.9244    1.7857 N.am      6 UNK        -0.4450 
     40 CA         27.5655   30.3166    1.4933 C.3       6 UNK         0.0367 
     41 CB         26.2873   31.0856    1.1103 C.3       6 UNK        -0.1929 
     42 C          28.6043   30.3490    0.3693 C.2       6 UNK         0.5070 
     43 O          28.3014   29.9125   -0.7424 O.2       6 UNK        -0.5237 
     44 N          29.7951   30.8691    0.6786 N.am      7 UNK        -0.4739 
     45 CA         30.9314   31.0786   -0.2165 C.3       7 UNK         0.0276 
     46 CB         31.5118   29.7367   -0.7089 C.3       7 UNK        -0.1927 
     47 C          32.0001   31.8559    0.5620 C.2       7 UNK         0.5013 
     48 O          31.9282   31.9266    1.7927 O.2       7 UNK        -0.5193 
     49 N          32.9941   32.3889   -0.1583 N.am      8 UNK        -0.4253 
     50 CA         34.2110   32.9665    0.4144 C.3       8 UNK         0.0242 
     51 CB         34.8216   33.9596   -0.5921 C.3       8 UNK        -0.2000 
     52 C          35.1798   31.8276    0.7771 C.2       8 UNK         0.4948 
     53 O          36.0455   31.4764   -0.0274 O.2       8 UNK        -0.5275 
     54 N          34.9688   31.2293    1.9523 N.am      9 UNK        -0.4246 
     55 CA         35.6737   30.0516    2.4495 C.3       9 UNK         0.0261 
     56 CB         34.9514   28.7876    1.9412 C.3       9 UNK        -0.1959 
     57 C          35.7118   30.0913    3.9831 C.2       9 UNK         0.5033 
     58 O          35.1356   30.9963    4.5931 O.2       9 UNK        -0.5390 
     59 N          36.3770   29.0972    4.5841 N.am      10 UNK        -0.4215 
     60 CA         36.3806   28.8525    6.0263 C.3       10 UNK         0.0240 
     61 CB         37.6002   27.9854    6.3897 C.3       10 UNK        -0.1982 
     62 C          35.0540   28.1924    6.4417 C.2       10 UNK         0.4970 
     63 O          34.9481   26.9649    6.4200 O.2       10 UNK        -0.4916 
     64 N          34.0594   29.0263    6.7634 N.am      11 UNK        -0.4279 
     65 CA         32.6849   28.6239    7.1072 C.3       11 UNK         0.1003 
     66 C          32.5331   27.8366    8.4419 C.2       11 UNK         0.5709 
     67 N          33.5219   27.8289    9.3283 N.am      11 UNK        -0.7358 
     68 O          31.4965   27.2199    8.6755 O.2       11 UNK        -0.4999 
     69 C69        31.7169   29.8370    7.0812 C.3       12 UNK        -0.0954 
     70 S70        31.7349   30.7291    5.4893 S.3       12 UNK        -0.2268 
     71 C71        30.1966   30.1525    4.7122 C.3       12 UNK         0.0203 
     72 H72        30.9687   22.1156    2.1756 H         1 UNK         0.0888 
     73 H73        31.7659   20.6806    1.5279 H         1 UNK         0.0888 
     74 H74        30.0031   20.7860    1.5328 H         1 UNK         0.0888 
     75 H75        31.0509   23.8483    0.7688 H         1 UNK         0.3017 
     76 H76        31.7471   23.6337   -1.9925 H         1 UNK         0.0873 
     77 H77        31.3745   26.1295   -2.0094 H         1 UNK         0.0745 
     78 H78        32.4991   25.5838   -0.8073 H         1 UNK         0.0745 
     79 H79        32.0761   25.4590    1.7326 H         1 UNK         0.0705 
     80 H80        32.4694   27.1136    1.3378 H         1 UNK         0.0705 
     81 H81        31.4204   28.9858    2.5796 H         1 UNK         0.1334 
     82 H82        29.0611   28.0577    6.0344 H         1 UNK         0.1417 
     83 H83        30.2740   24.9245    3.3746 H         1 UNK         0.1562 
     84 H84        28.5707   25.7774    6.6100 H         1 UNK         0.0748 
     85 H85        29.4401   24.4908    5.8139 H         1 UNK         0.0748 
     86 H86        26.8134   27.1299    5.2926 H         1 UNK         0.0940 
     87 H87        25.3749   26.3122    4.7951 H         1 UNK         0.0940 
     88 H88        27.5212   26.5021    2.6755 H         1 UNK         0.0703 
     89 H89        25.7897   25.8086    1.5144 H         1 UNK         0.3081 
     90 H90        22.3181   26.3306    1.5693 H         1 UNK         0.0719 
     91 H91        22.8779   28.4308    0.3334 H         1 UNK         0.0809 
     92 H92        24.1491   27.5951   -0.5466 H         1 UNK         0.0809 
     93 H93        22.4600   27.1393   -0.7789 H         1 UNK         0.0809 
     94 H94        24.0590   25.1349   -0.3772 H         1 UNK         0.2990 
     95 H95        24.7967   22.1731    1.2608 H         1 UNK         0.0690 
     96 H96        23.5134   20.9354   -0.4663 H         1 UNK         0.0788 
     97 H97        22.5499   22.3710   -0.8198 H         1 UNK         0.0788 
     98 H98        22.4202   21.5804    0.7450 H         1 UNK         0.0788 
     99 H99        24.9324   22.7392   -1.4963 H         1 UNK         0.2993 
    100 H100       27.0672   23.0948   -2.3531 H         1 UNK         0.0949 
    101 H101       26.8425   26.1184   -1.7588 H         1 UNK         0.0767 
    102 H102       27.2953   25.4175   -3.3099 H         1 UNK         0.0767 
    103 H103       25.6725   25.1868   -2.6873 H         1 UNK         0.0767 
    104 H104       28.6830   24.1775   -0.2718 H         1 UNK         0.3013 
    105 H105       27.4039   28.2755    1.0256 H         1 UNK         0.3121 
    106 H106       27.9969   30.7844    2.3810 H         1 UNK         0.0774 
    107 H107       26.5162   32.1222    0.8602 H         1 UNK         0.0815 
    108 H108       25.7929   30.6408    0.2458 H         1 UNK         0.0815 
    109 H109       25.5719   31.0998    1.9328 H         1 UNK         0.0815 
    110 H110       29.9729   31.2117    1.6159 H         1 UNK         0.2987 
    111 H111       30.6026   31.6797   -1.0667 H         1 UNK         0.0949 
    112 H112       30.7774   29.1519   -1.2621 H         1 UNK         0.0806 
    113 H113       32.3584   29.8919   -1.3782 H         1 UNK         0.0806 
    114 H114       31.8657   29.1285    0.1227 H         1 UNK         0.0806 
    115 H115       32.9907   32.2608   -1.1602 H         1 UNK         0.3010 
    116 H116       33.9655   33.5181    1.3250 H         1 UNK         0.0829 
    117 H117       35.7431   34.3920   -0.2002 H         1 UNK         0.0813 
    118 H118       34.1389   34.7844   -0.7972 H         1 UNK         0.0813 
    119 H119       35.0641   33.4822   -1.5424 H         1 UNK         0.0813 
    120 H120       34.2541   31.5876    2.5766 H         1 UNK         0.3038 
    121 H121       36.7042   30.0606    2.0878 H         1 UNK         0.0769 
    122 H122       34.8738   28.7820    0.8537 H         1 UNK         0.0811 
    123 H123       33.9418   28.7219    2.3479 H         1 UNK         0.0811 
    124 H124       35.4801   27.8781    2.2277 H         1 UNK         0.0811 
    125 H125       36.8071   28.3862    4.0101 H         1 UNK         0.3204 
    126 H126       36.4783   29.8039    6.5541 H         1 UNK         0.0748 
    127 H127       37.6204   27.7718    7.4593 H         1 UNK         0.0771 
    128 H128       37.5927   27.0281    5.8666 H         1 UNK         0.0771 
    129 H129       38.5332   28.4929    6.1441 H         1 UNK         0.0771 
    130 H130       34.2152   30.0209    6.6729 H         1 UNK         0.2980 
    131 H131       32.3630   27.9336    6.3252 H         1 UNK         0.0545 
    132 H132       33.4109   27.3130   10.1868 H         1 UNK         0.3459 
    133 H133       34.3751   28.3323    9.1473 H         1 UNK         0.3459 
    134 H134       31.9860   30.5486    7.8637 H         1 UNK         0.0616 
    135 H135       30.6946   29.5242    7.3002 H         1 UNK         0.0616 
    136 H136       30.0293   30.7369    3.8072 H         1 UNK         0.0634 
    137 H137       29.3518   30.3629    5.3700 H         1 UNK         0.0634 
@<TRIPOS>BOND
     1    1    2 1    
     2    1   72 1    
     3    1   73 1    
     4    1   74 1    
     5    2    3 2    
     6    2    4 am   BACKBONE|DICT|INTERRES
     7    4    5 1    
     8    4   75 1    
     9    5    6 1    
    10    5   35 1    
    11    5   76 1    
    12    6    7 1    
    13    6   77 1    
    14    6   78 1    
    15    7    8 1    
    16    8    9 1    
    17    8   79 1    
    18    8   80 1    
    19    9   10 ar   
    20    9   14 ar   
    21   10   11 ar   
    22   10   81 1    
    23   11   12 ar   
    24   11   71 1    
    25   12   13 ar   
    26   12   82 1    
    27   13   14 ar   
    28   13   15 1    
    29   14   83 1    
    30   15   16 1    
    31   15   84 1    
    32   15   85 1    
    33   16   17 1    
    34   17   18 1    
    35   17   86 1    
    36   17   87 1    
    37   18   19 1    
    38   18   37 1    
    39   18   88 1    
    40   19   20 am   BACKBONE|DICT|INTERRES
    41   19   89 1    
    42   20   21 2    
    43   20   22 1    
    44   22   23 1    
    45   22   24 1    
    46   22   90 1    
    47   23   91 1    
    48   23   92 1    
    49   23   93 1    
    50   24   25 am   BACKBONE|DICT|INTERRES
    51   24   94 1    
    52   25   26 2    
    53   25   27 1    
    54   27   28 1    
    55   27   29 1    
    56   27   95 1    
    57   28   96 1    
    58   28   97 1    
    59   28   98 1    
    60   29   30 am   BACKBONE|DICT|INTERRES
    61   29   99 1    
    62   30   31 2    
    63   30   32 1    
    64   32   33 1    
    65   32   34 1    
    66   32  100 1    
    67   33  101 1    
    68   33  102 1    
    69   33  103 1    
    70   34   35 am   BACKBONE|DICT|INTERRES
    71   34  104 1    
    72   35   36 2    
    73   37   38 2    
    74   37   39 am   BACKBONE|DICT|INTERRES
    75   39   40 1    
    76   39  105 1    
    77   40   41 1    
    78   40   42 1    
    79   40  106 1    
    80   41  107 1    
    81   41  108 1    
    82   41  109 1    
    83   42   43 2    
    84   42   44 am   BACKBONE|DICT|INTERRES
    85   44   45 1    
    86   44  110 1    
    87   45   46 1    
    88   45   47 1    
    89   45  111 1    
    90   46  112 1    
    91   46  113 1    
    92   46  114 1    
    93   47   48 2    
    94   47   49 am   BACKBONE|DICT|INTERRES
    95   49   50 1    
    96   49  115 1    
    97   50   51 1    
    98   50   52 1    
    99   50  116 1    
   100   51  117 1    
   101   51  118 1    
   102   51  119 1    
   103   52   53 2    
   104   52   54 am   BACKBONE|DICT|INTERRES
   105   54   55 1    
   106   54  120 1    
   107   55   56 1    
   108   55   57 1    
   109   55  121 1    
   110   56  122 1    
   111   56  123 1    
   112   56  124 1    
   113   57   58 2    
   114   57   59 am   BACKBONE|DICT|INTERRES
   115   59   60 1    
   116   59  125 1    
   117   60   61 1    
   118   60   62 1    
   119   60  126 1    
   120   61  127 1    
   121   61  128 1    
   122   61  129 1    
   123   62   63 2    
   124   62   64 am   BACKBONE|DICT|INTERRES
   125   64   65 1    
   126   64  130 1    
   127   65   66 1    
   128   65   69 1    
   129   65  131 1    
   130   66   67 am   BACKBONE|DICT|INTERRES
   131   66   68 2    
   132   67  132 1    
   133   67  133 1    
   134   69   70 1    
   135   69  134 1    
   136   69  135 1    
   137   70   71 1    
   138   71  136 1    
   139   71  137 1    
@<TRIPOS>SUBSTRUCTURE
     1 UNK         1 GROUP             0       ****    0 ROOT    
