@<TRIPOS>MOLECULE
3R136
137   139    1
SMALL
USER_CHARGES


@<TRIPOS>ATOM
      1 CA         28.3743   22.3553    5.0075 C.3       0 UNK        -0.1979 
      2 C          27.5520   22.4308    3.7298 C.2       0 UNK         0.4864 
      3 O          26.3252   22.5152    3.8034 O.2       0 UNK        -0.5359 
      4 N          28.2105   22.3789    2.5630 N.am      1 UNK        -0.4318 
      5 CA         27.5612   22.4088    1.2517 C.3       1 UNK         0.0824 
      6 C6         28.4132   21.7016    0.1613 C.3       12 UNK        -0.0944 
      7 S7         29.8997   22.6039   -0.3991 S.3       12 UNK        -0.2672 
      8 C8         31.2821   21.6696    0.3292 C.3       12 UNK         0.0333 
      9 C9         32.1521   22.5866    1.1740 C.ar      12 UNK        -0.0807 
     10 C10        33.1666   23.3465    0.5823 C.ar      12 UNK        -0.0894 
     11 C11        33.9530   24.2179    1.3452 C.ar      12 UNK        -0.0804 
     12 C12        33.7082   24.3140    2.7229 C.ar      12 UNK        -0.0824 
     13 C13        32.6898   23.5684    3.3226 C.ar      12 UNK        -0.0762 
     14 C14        31.9298   22.6910    2.5474 C.ar      12 UNK        -0.0782 
     15 C15        32.4032   23.7162    4.8090 C.3       12 UNK         0.0230 
     16 S16        31.6517   25.3272    5.2143 S.3       12 UNK        -0.2608 
     17 C17        30.1152   25.3592    4.2217 C.3       12 UNK        -0.0989 
     18 CA         29.9205   26.7379    3.5307 C.3       5 UNK         0.0716 
     19 N          30.0018   26.6746    2.0672 N.am      5 UNK        -0.4135 
     20 C          30.6352   27.6024    1.3357 C.2       4 UNK         0.5031 
     21 O          31.1988   28.5825    1.8219 O.2       4 UNK        -0.5229 
     22 CA         30.6531   27.4161   -0.1866 C.3       4 UNK         0.0329 
     23 CB         31.3445   26.1081   -0.5876 C.3       4 UNK        -0.2001 
     24 N          29.3071   27.4565   -0.7507 N.am      4 UNK        -0.4303 
     25 C          28.6540   28.5780   -1.0747 C.2       3 UNK         0.5044 
     26 O          29.1299   29.7022   -0.9276 O.2       3 UNK        -0.5152 
     27 CA         27.2371   28.4533   -1.6707 C.3       3 UNK         0.0319 
     28 CB         27.2906   28.4523   -3.2111 C.3       3 UNK        -0.2001 
     29 N          26.4245   27.3358   -1.1646 N.am      3 UNK        -0.4354 
     30 C          26.6284   26.0191   -1.3075 C.2       2 UNK         0.4964 
     31 O          27.5804   25.5254   -1.9149 O.2       2 UNK        -0.5047 
     32 CA         25.5809   25.1002   -0.6598 C.3       2 UNK         0.0288 
     33 CB         24.5131   24.7011   -1.6913 C.3       2 UNK        -0.2113 
     34 N          26.1686   23.8883   -0.0886 N.am      2 UNK        -0.4145 
     35 C          27.1158   23.8359    0.8598 C.2       1 UNK         0.5006 
     36 O          27.6230   24.8302    1.4005 O.2       1 UNK        -0.5103 
     37 C          28.6204   27.4277    3.9730 C.2       5 UNK         0.5055 
     38 O          28.6599   28.2401    4.8994 O.2       5 UNK        -0.5220 
     39 N          27.5002   27.1118    3.3032 N.am      6 UNK        -0.4450 
     40 CA         26.1609   27.6085    3.6432 C.3       6 UNK         0.0367 
     41 CB         25.1219   26.9499    2.7267 C.3       6 UNK        -0.1929 
     42 C          26.0144   29.1397    3.5893 C.2       6 UNK         0.5070 
     43 O          25.2495   29.6997    4.3746 O.2       6 UNK        -0.5237 
     44 N          26.7715   29.8006    2.7029 N.am      7 UNK        -0.4739 
     45 CA         26.8220   31.2597    2.5611 C.3       7 UNK         0.0276 
     46 CB         27.2325   31.6108    1.1205 C.3       7 UNK        -0.1927 
     47 C          27.7457   31.9119    3.6108 C.2       7 UNK         0.5013 
     48 O          28.6198   32.7013    3.2513 O.2       7 UNK        -0.5193 
     49 N          27.5396   31.5560    4.8871 N.am      8 UNK        -0.4253 
     50 CA         28.2572   32.0285    6.0776 C.3       8 UNK         0.0242 
     51 CB         27.8795   33.4946    6.3809 C.3       8 UNK        -0.2000 
     52 C          29.7821   31.8042    6.0047 C.2       8 UNK         0.4948 
     53 O          30.5504   32.7149    6.3212 O.2       8 UNK        -0.5275 
     54 N          30.1846   30.5910    5.5945 N.am      9 UNK        -0.4246 
     55 CA         31.5693   30.1258    5.4501 C.3       9 UNK         0.0261 
     56 CB         32.2585   30.0107    6.8269 C.3       9 UNK        -0.1959 
     57 C          32.3878   30.9413    4.4297 C.2       9 UNK         0.5033 
     58 O          33.5308   31.3081    4.7111 O.2       9 UNK        -0.5390 
     59 N          31.8076   31.1751    3.2426 N.am      10 UNK        -0.4215 
     60 CA         32.4468   31.8351    2.0942 C.3       10 UNK         0.0240 
     61 CB         31.4236   31.9879    0.9572 C.3       10 UNK        -0.1982 
     62 C          33.7188   31.1225    1.5895 C.2       10 UNK         0.4970 
     63 O          34.6071   31.7847    1.0515 O.2       10 UNK        -0.4916 
     64 N          33.7973   29.8041    1.8135 N.am      11 UNK        -0.4279 
     65 CA         35.0003   28.9655    1.6994 C.3       11 UNK         0.1003 
     66 C          36.2143   29.4596    2.5510 C.2       11 UNK         0.5709 
     67 N          36.0136   30.1726    3.6545 N.am      11 UNK        -0.7358 
     68 O          37.3628   29.2139    2.1901 O.2       11 UNK        -0.4999 
     69 C69        34.6330   27.4894    2.0193 C.3       12 UNK        -0.0954 
     70 S70        35.9350   26.2661    1.6276 S.3       12 UNK        -0.2268 
     71 C71        35.0419   25.0243    0.6267 C.3       12 UNK         0.0203 
     72 H72        28.1120   23.1753    5.6752 H         1 UNK         0.0888 
     73 H73        28.1681   21.4199    5.5269 H         1 UNK         0.0888 
     74 H74        29.4435   22.4025    4.8106 H         1 UNK         0.0888 
     75 H75        29.2166   22.3505    2.5430 H         1 UNK         0.3017 
     76 H76        26.6444   21.8214    1.3452 H         1 UNK         0.0873 
     77 H77        28.6898   20.7017    0.4980 H         1 UNK         0.0745 
     78 H78        27.7975   21.5340   -0.7240 H         1 UNK         0.0745 
     79 H79        31.8743   21.2292   -0.4743 H         1 UNK         0.0705 
     80 H80        30.9186   20.8352    0.9301 H         1 UNK         0.0705 
     81 H81        33.3349   23.2680   -0.4834 H         1 UNK         0.1334 
     82 H82        34.2928   24.9747    3.3454 H         1 UNK         0.1417 
     83 H83        31.1582   22.0958    3.0125 H         1 UNK         0.1562 
     84 H84        33.3370   23.6166    5.3642 H         1 UNK         0.0748 
     85 H85        31.7541   22.9164    5.1668 H         1 UNK         0.0748 
     86 H86        29.2954   25.1206    4.9013 H         1 UNK         0.0940 
     87 H87        30.1209   24.5574    3.4852 H         1 UNK         0.0940 
     88 H88        30.7155   27.3938    3.8836 H         1 UNK         0.0703 
     89 H89        29.5153   25.9143    1.6074 H         1 UNK         0.3081 
     90 H90        31.2384   28.2345   -0.6124 H         1 UNK         0.0719 
     91 H91        31.3701   25.9836   -1.6701 H         1 UNK         0.0809 
     92 H92        32.3738   26.0989   -0.2355 H         1 UNK         0.0809 
     93 H93        30.8470   25.2394   -0.1616 H         1 UNK         0.0809 
     94 H94        28.8555   26.5719   -0.9669 H         1 UNK         0.2990 
     95 H95        26.7028   29.3555   -1.3691 H         1 UNK         0.0690 
     96 H96        27.8293   27.5882   -3.6012 H         1 UNK         0.0788 
     97 H97        27.7990   29.3432   -3.5825 H         1 UNK         0.0788 
     98 H98        26.2899   28.4472   -3.6431 H         1 UNK         0.0788 
     99 H99        25.6045   27.6231   -0.6489 H         1 UNK         0.2993 
    100 H100       25.0884   25.6340    0.1519 H         1 UNK         0.0949 
    101 H101       24.9438   24.1335   -2.5177 H         1 UNK         0.0767 
    102 H102       23.7287   24.0941   -1.2386 H         1 UNK         0.0767 
    103 H103       24.0317   25.5822   -2.1183 H         1 UNK         0.0767 
    104 H104       25.8461   23.0189   -0.4867 H         1 UNK         0.3013 
    105 H105       27.5503   26.4026    2.5766 H         1 UNK         0.3121 
    106 H106       25.9547   27.2979    4.6697 H         1 UNK         0.0774 
    107 H107       24.1092   27.2099    3.0378 H         1 UNK         0.0815 
    108 H108       25.2398   27.2849    1.6973 H         1 UNK         0.0815 
    109 H109       25.1983   25.8623    2.7478 H         1 UNK         0.0815 
    110 H110       27.4105   29.2674    2.1321 H         1 UNK         0.2987 
    111 H111       25.8208   31.6652    2.7246 H         1 UNK         0.0949 
    112 H112       28.2557   31.2995    0.9108 H         1 UNK         0.0806 
    113 H113       26.5763   31.1392    0.3895 H         1 UNK         0.0806 
    114 H114       27.1821   32.6872    0.9515 H         1 UNK         0.0806 
    115 H115       26.7968   30.8844    5.0532 H         1 UNK         0.3010 
    116 H116       27.9031   31.4189    6.9103 H         1 UNK         0.0829 
    117 H117       28.3183   33.8256    7.3231 H         1 UNK         0.0813 
    118 H118       28.2324   34.1715    5.6020 H         1 UNK         0.0813 
    119 H119       26.7999   33.6169    6.4678 H         1 UNK         0.0813 
    120 H120       29.4739   29.8991    5.3629 H         1 UNK         0.3038 
    121 H121       31.5107   29.1179    5.0431 H         1 UNK         0.0769 
    122 H122       33.2418   29.5479    6.7331 H         1 UNK         0.0811 
    123 H123       31.6761   29.3938    7.5112 H         1 UNK         0.0811 
    124 H124       32.4027   30.9862    7.2922 H         1 UNK         0.0811 
    125 H125       30.8769   30.8149    3.0862 H         1 UNK         0.3204 
    126 H126       32.7453   32.8329    2.4215 H         1 UNK         0.0748 
    127 H127       31.8651   32.4952    0.0984 H         1 UNK         0.0771 
    128 H128       31.0566   31.0211    0.6107 H         1 UNK         0.0771 
    129 H129       30.5638   32.5787    1.2735 H         1 UNK         0.0771 
    130 H130       32.9588   29.3424    2.1518 H         1 UNK         0.2980 
    131 H131       35.3096   29.0160    0.6542 H         1 UNK         0.0545 
    132 H132       35.0814   30.4476    3.9496 H         1 UNK         0.3459 
    133 H133       36.8121   30.4883    4.1806 H         1 UNK         0.3459 
    134 H134       34.3730   27.3880    3.0746 H         1 UNK         0.0616 
    135 H135       33.7344   27.2122    1.4676 H         1 UNK         0.0616 
    136 H136       34.6166   25.5257   -0.2430 H         1 UNK         0.0634 
    137 H137       35.7807   24.3217    0.2393 H         1 UNK         0.0634 
@<TRIPOS>BOND
     1    1    2 1    
     2    1   72 1    
     3    1   73 1    
     4    1   74 1    
     5    2    3 2    
     6    2    4 am   BACKBONE|DICT|INTERRES
     7    4    5 1    
     8    4   75 1    
     9    5    6 1    
    10    5   35 1    
    11    5   76 1    
    12    6    7 1    
    13    6   77 1    
    14    6   78 1    
    15    7    8 1    
    16    8    9 1    
    17    8   79 1    
    18    8   80 1    
    19    9   10 ar   
    20    9   14 ar   
    21   10   11 ar   
    22   10   81 1    
    23   11   12 ar   
    24   11   71 1    
    25   12   13 ar   
    26   12   82 1    
    27   13   14 ar   
    28   13   15 1    
    29   14   83 1    
    30   15   16 1    
    31   15   84 1    
    32   15   85 1    
    33   16   17 1    
    34   17   18 1    
    35   17   86 1    
    36   17   87 1    
    37   18   19 1    
    38   18   37 1    
    39   18   88 1    
    40   19   20 am   BACKBONE|DICT|INTERRES
    41   19   89 1    
    42   20   21 2    
    43   20   22 1    
    44   22   23 1    
    45   22   24 1    
    46   22   90 1    
    47   23   91 1    
    48   23   92 1    
    49   23   93 1    
    50   24   25 am   BACKBONE|DICT|INTERRES
    51   24   94 1    
    52   25   26 2    
    53   25   27 1    
    54   27   28 1    
    55   27   29 1    
    56   27   95 1    
    57   28   96 1    
    58   28   97 1    
    59   28   98 1    
    60   29   30 am   BACKBONE|DICT|INTERRES
    61   29   99 1    
    62   30   31 2    
    63   30   32 1    
    64   32   33 1    
    65   32   34 1    
    66   32  100 1    
    67   33  101 1    
    68   33  102 1    
    69   33  103 1    
    70   34   35 am   BACKBONE|DICT|INTERRES
    71   34  104 1    
    72   35   36 2    
    73   37   38 2    
    74   37   39 am   BACKBONE|DICT|INTERRES
    75   39   40 1    
    76   39  105 1    
    77   40   41 1    
    78   40   42 1    
    79   40  106 1    
    80   41  107 1    
    81   41  108 1    
    82   41  109 1    
    83   42   43 2    
    84   42   44 am   BACKBONE|DICT|INTERRES
    85   44   45 1    
    86   44  110 1    
    87   45   46 1    
    88   45   47 1    
    89   45  111 1    
    90   46  112 1    
    91   46  113 1    
    92   46  114 1    
    93   47   48 2    
    94   47   49 am   BACKBONE|DICT|INTERRES
    95   49   50 1    
    96   49  115 1    
    97   50   51 1    
    98   50   52 1    
    99   50  116 1    
   100   51  117 1    
   101   51  118 1    
   102   51  119 1    
   103   52   53 2    
   104   52   54 am   BACKBONE|DICT|INTERRES
   105   54   55 1    
   106   54  120 1    
   107   55   56 1    
   108   55   57 1    
   109   55  121 1    
   110   56  122 1    
   111   56  123 1    
   112   56  124 1    
   113   57   58 2    
   114   57   59 am   BACKBONE|DICT|INTERRES
   115   59   60 1    
   116   59  125 1    
   117   60   61 1    
   118   60   62 1    
   119   60  126 1    
   120   61  127 1    
   121   61  128 1    
   122   61  129 1    
   123   62   63 2    
   124   62   64 am   BACKBONE|DICT|INTERRES
   125   64   65 1    
   126   64  130 1    
   127   65   66 1    
   128   65   69 1    
   129   65  131 1    
   130   66   67 am   BACKBONE|DICT|INTERRES
   131   66   68 2    
   132   67  132 1    
   133   67  133 1    
   134   69   70 1    
   135   69  134 1    
   136   69  135 1    
   137   70   71 1    
   138   71  136 1    
   139   71  137 1    
@<TRIPOS>SUBSTRUCTURE
     1 UNK         1 GROUP             0       ****    0 ROOT    
