@<TRIPOS>MOLECULE
3R136
137   139    1
SMALL
USER_CHARGES


@<TRIPOS>ATOM
      1 CA         27.9612   23.0156   -2.5766 C.3       0 UNK        -0.1979 
      2 C          28.0039   23.6550   -1.1977 C.2       0 UNK         0.4864 
      3 O          27.8206   24.8686   -1.0835 O.2       0 UNK        -0.5359 
      4 N          28.2425   22.8493   -0.1554 N.am      1 UNK        -0.4318 
      5 CA         28.2807   23.2633    1.2492 C.3       1 UNK         0.0824 
      6 C6         28.7951   22.1082    2.1460 C.3       12 UNK        -0.0944 
      7 S7         29.4487   22.6784    3.7513 S.3       12 UNK        -0.2672 
      8 C8         31.2459   22.4699    3.5297 C.3       12 UNK         0.0333 
      9 C9         31.8753   23.6853    2.8646 C.ar      12 UNK        -0.0807 
     10 C10        32.5313   24.6443    3.6412 C.ar      12 UNK        -0.0894 
     11 C11        33.1081   25.7677    3.0438 C.ar      12 UNK        -0.0804 
     12 C12        33.0220   25.9298    1.6571 C.ar      12 UNK        -0.0824 
     13 C13        32.3600   24.9823    0.8664 C.ar      12 UNK        -0.0762 
     14 C14        31.8057   23.8536    1.4784 C.ar      12 UNK        -0.0782 
     15 C15        32.2308   25.1564   -0.6474 C.3       12 UNK         0.0230 
     16 S16        31.7845   26.8492   -1.1727 S.3       12 UNK        -0.2608 
     17 C17        30.4030   27.2267   -0.0496 C.3       12 UNK        -0.0989 
     18 CA         29.3578   28.1777   -0.6758 C.3       5 UNK         0.0716 
     19 N          28.5645   27.5156   -1.7028 N.am      5 UNK        -0.4135 
     20 C          27.9767   28.1355   -2.7324 C.2       4 UNK         0.5031 
     21 O          28.1559   29.3189   -3.0233 O.2       4 UNK        -0.5229 
     22 CA         26.9864   27.2941   -3.5484 C.3       4 UNK         0.0329 
     23 CB         27.7289   26.3197   -4.4774 C.3       4 UNK        -0.2001 
     24 N          26.0998   26.5497   -2.6526 N.am      4 UNK        -0.4303 
     25 C          24.9722   27.0418   -2.1239 C.2       3 UNK         0.5044 
     26 O          24.5036   28.1462   -2.4013 O.2       3 UNK        -0.5152 
     27 CA         24.2616   26.1602   -1.0933 C.3       3 UNK         0.0319 
     28 CB         23.9512   24.7506   -1.6347 C.3       3 UNK        -0.2001 
     29 N          25.0711   26.0756    0.1190 N.am      3 UNK        -0.4354 
     30 C          24.5890   25.8962    1.3552 C.2       2 UNK         0.4964 
     31 O          23.3874   25.7980    1.6131 O.2       2 UNK        -0.5047 
     32 CA         25.6322   25.8031    2.4882 C.3       2 UNK         0.0288 
     33 CB         25.0554   25.2507    3.8099 C.3       2 UNK        -0.2113 
     34 N          26.8342   25.0594    2.0866 N.am      2 UNK        -0.4145 
     35 C          26.8978   23.7747    1.7026 C.2       1 UNK         0.5006 
     36 O          25.9340   23.0051    1.6723 O.2       1 UNK        -0.5103 
     37 C          28.4063   28.6494    0.4297 C.2       5 UNK         0.5055 
     38 O          27.5805   27.8576    0.8939 O.2       5 UNK        -0.5220 
     39 N          28.6141   29.8795    0.9129 N.am      6 UNK        -0.4450 
     40 CA         28.0517   30.3867    2.1662 C.3       6 UNK         0.0367 
     41 CB         28.0390   31.9261    2.1281 C.3       6 UNK        -0.1929 
     42 C          28.8664   29.8356    3.3513 C.2       6 UNK         0.5070 
     43 O          29.5994   30.5786    4.0049 O.2       6 UNK        -0.5237 
     44 N          28.7978   28.5156    3.5496 N.am      7 UNK        -0.4739 
     45 CA         29.5516   27.7899    4.5694 C.3       7 UNK         0.0276 
     46 CB         29.4543   26.2841    4.2821 C.3       7 UNK        -0.1927 
     47 C          29.0330   28.1058    5.9892 C.2       7 UNK         0.5013 
     48 O          27.8234   28.2655    6.1552 O.2       7 UNK        -0.5193 
     49 N          29.8896   28.1632    7.0198 N.am      8 UNK        -0.4253 
     50 CA         31.3514   28.0350    6.9830 C.3       8 UNK         0.0242 
     51 CB         31.8366   27.5432    8.3562 C.3       8 UNK        -0.2000 
     52 C          32.0744   29.3442    6.6102 C.2       8 UNK         0.4948 
     53 O          33.2664   29.2915    6.3104 O.2       8 UNK        -0.5275 
     54 N          31.3613   30.4820    6.6337 N.am      9 UNK        -0.4246 
     55 CA         31.8837   31.8426    6.4377 C.3       9 UNK         0.0261 
     56 CB         30.7256   32.8512    6.5042 C.3       9 UNK        -0.1959 
     57 C          32.7044   32.0486    5.1522 C.2       9 UNK         0.5033 
     58 O          33.7020   32.7707    5.1867 O.2       9 UNK        -0.5390 
     59 N          32.3117   31.3710    4.0647 N.am      10 UNK        -0.4215 
     60 CA         33.0247   31.3137    2.7826 C.3       10 UNK         0.0240 
     61 CB         32.2271   30.4360    1.8035 C.3       10 UNK        -0.1982 
     62 C          34.4846   30.8217    2.8688 C.2       10 UNK         0.4970 
     63 O          35.2798   31.1733    1.9964 O.2       10 UNK        -0.4916 
     64 N          34.8128   30.0373    3.9031 N.am      11 UNK        -0.4279 
     65 CA         36.1708   29.5647    4.2058 C.3       11 UNK         0.1003 
     66 C          36.9683   30.5329    5.1292 C.2       11 UNK         0.5709 
     67 N          36.4161   31.6563    5.5754 N.am      11 UNK        -0.7358 
     68 O          38.1296   30.2703    5.4338 O.2       11 UNK        -0.4999 
     69 C69        36.1494   28.1182    4.7690 C.3       12 UNK        -0.0954 
     70 S70        35.5850   26.8949    3.5397 S.3       12 UNK        -0.2268 
     71 C71        33.8037   26.8153    3.8989 C.3       12 UNK         0.0203 
     72 H72        28.8280   23.3257   -3.1590 H         1 UNK         0.0888 
     73 H73        27.9624   21.9273   -2.5197 H         1 UNK         0.0888 
     74 H74        27.0620   23.3234   -3.1092 H         1 UNK         0.0888 
     75 H75        28.3455   21.8582   -0.3186 H         1 UNK         0.3017 
     76 H76        28.9916   24.0896    1.3101 H         1 UNK         0.0873 
     77 H77        29.5822   21.5563    1.6309 H         1 UNK         0.0745 
     78 H78        28.0100   21.3723    2.3317 H         1 UNK         0.0745 
     79 H79        31.4616   21.5675    2.9562 H         1 UNK         0.0705 
     80 H80        31.6943   22.3101    4.5115 H         1 UNK         0.0705 
     81 H81        32.5875   24.5174    4.7138 H         1 UNK         0.1334 
     82 H82        33.4655   26.8015    1.1952 H         1 UNK         0.1417 
     83 H83        31.3063   23.1082    0.8755 H         1 UNK         0.1562 
     84 H84        33.1759   24.8799   -1.1161 H         1 UNK         0.0748 
     85 H85        31.4773   24.4744   -1.0452 H         1 UNK         0.0748 
     86 H86        30.8381   27.6652    0.8510 H         1 UNK         0.0940 
     87 H87        29.9272   26.2962    0.2675 H         1 UNK         0.0940 
     88 H88        29.8729   29.0411   -1.1031 H         1 UNK         0.0703 
     89 H89        28.3254   26.5446   -1.5114 H         1 UNK         0.3081 
     90 H90        26.3928   27.9682   -4.1700 H         1 UNK         0.0719 
     91 H91        28.3848   25.6476   -3.9240 H         1 UNK         0.0809 
     92 H92        27.0316   25.7109   -5.0532 H         1 UNK         0.0809 
     93 H93        28.3502   26.8631   -5.1904 H         1 UNK         0.0809 
     94 H94        26.4566   25.6713   -2.2939 H         1 UNK         0.2990 
     95 H95        23.3145   26.6506   -0.8571 H         1 UNK         0.0690 
     96 H96        23.3160   24.1973   -0.9428 H         1 UNK         0.0788 
     97 H97        24.8557   24.1624   -1.7906 H         1 UNK         0.0788 
     98 H98        23.4221   24.8037   -2.5871 H         1 UNK         0.0788 
     99 H99        26.0710   26.1994    0.0068 H         1 UNK         0.2993 
    100 H100       25.9510   26.8278    2.6828 H         1 UNK         0.0949 
    101 H101       25.8164   25.2156    4.5896 H         1 UNK         0.0767 
    102 H102       24.2464   25.8834    4.1769 H         1 UNK         0.0767 
    103 H103       24.6513   24.2453    3.6887 H         1 UNK         0.0767 
    104 H104       27.6674   25.6222    1.9920 H         1 UNK         0.3013 
    105 H105       29.3186   30.4568    0.4772 H         1 UNK         0.3121 
    106 H106       27.0213   30.0403    2.2737 H         1 UNK         0.0774 
    107 H107       27.6219   32.3334    3.0500 H         1 UNK         0.0815 
    108 H108       29.0420   32.3398    2.0155 H         1 UNK         0.0815 
    109 H109       27.4282   32.2972    1.3050 H         1 UNK         0.0815 
    110 H110       28.1823   27.9814    2.9504 H         1 UNK         0.2987 
    111 H111       30.5914   28.0975    4.4597 H         1 UNK         0.0949 
    112 H112       28.4280   25.9233    4.3589 H         1 UNK         0.0806 
    113 H113       29.8272   26.0417    3.2866 H         1 UNK         0.0806 
    114 H114       30.0485   25.7108    4.9946 H         1 UNK         0.0806 
    115 H115       29.4979   28.3388    7.9341 H         1 UNK         0.3010 
    116 H116       31.6360   27.2745    6.2547 H         1 UNK         0.0829 
    117 H117       31.3859   26.5854    8.6173 H         1 UNK         0.0813 
    118 H118       32.9184   27.4001    8.3605 H         1 UNK         0.0813 
    119 H119       31.5999   28.2539    9.1491 H         1 UNK         0.0813 
    120 H120       30.3768   30.4134    6.8467 H         1 UNK         0.3038 
    121 H121       32.5542   32.0434    7.2757 H         1 UNK         0.0769 
    122 H122       29.9900   32.6740    5.7186 H         1 UNK         0.0811 
    123 H123       31.0898   33.8727    6.3846 H         1 UNK         0.0811 
    124 H124       30.2107   32.8038    7.4639 H         1 UNK         0.0811 
    125 H125       31.4127   30.8936    4.1147 H         1 UNK         0.3204 
    126 H126       33.0551   32.3302    2.3854 H         1 UNK         0.0748 
    127 H127       32.7428   30.3395    0.8468 H         1 UNK         0.0771 
    128 H128       32.0741   29.4301    2.1962 H         1 UNK         0.0771 
    129 H129       31.2507   30.8720    1.5987 H         1 UNK         0.0771 
    130 H130       34.1189   29.8323    4.6156 H         1 UNK         0.2980 
    131 H131       36.7415   29.5340    3.2759 H         1 UNK         0.0545 
    132 H132       35.4650   31.9133    5.3319 H         1 UNK         0.3459 
    133 H133       36.9602   32.2662    6.1640 H         1 UNK         0.3459 
    134 H134       35.5347   28.0552    5.6680 H         1 UNK         0.0616 
    135 H135       37.1520   27.8102    5.0708 H         1 UNK         0.0616 
    136 H136       33.6662   26.6028    4.9600 H         1 UNK         0.0634 
    137 H137       33.3424   27.7846    3.7127 H         1 UNK         0.0634 
@<TRIPOS>BOND
     1    1    2 1    
     2    1   72 1    
     3    1   73 1    
     4    1   74 1    
     5    2    3 2    
     6    2    4 am   BACKBONE|DICT|INTERRES
     7    4    5 1    
     8    4   75 1    
     9    5    6 1    
    10    5   35 1    
    11    5   76 1    
    12    6    7 1    
    13    6   77 1    
    14    6   78 1    
    15    7    8 1    
    16    8    9 1    
    17    8   79 1    
    18    8   80 1    
    19    9   10 ar   
    20    9   14 ar   
    21   10   11 ar   
    22   10   81 1    
    23   11   12 ar   
    24   11   71 1    
    25   12   13 ar   
    26   12   82 1    
    27   13   14 ar   
    28   13   15 1    
    29   14   83 1    
    30   15   16 1    
    31   15   84 1    
    32   15   85 1    
    33   16   17 1    
    34   17   18 1    
    35   17   86 1    
    36   17   87 1    
    37   18   19 1    
    38   18   37 1    
    39   18   88 1    
    40   19   20 am   BACKBONE|DICT|INTERRES
    41   19   89 1    
    42   20   21 2    
    43   20   22 1    
    44   22   23 1    
    45   22   24 1    
    46   22   90 1    
    47   23   91 1    
    48   23   92 1    
    49   23   93 1    
    50   24   25 am   BACKBONE|DICT|INTERRES
    51   24   94 1    
    52   25   26 2    
    53   25   27 1    
    54   27   28 1    
    55   27   29 1    
    56   27   95 1    
    57   28   96 1    
    58   28   97 1    
    59   28   98 1    
    60   29   30 am   BACKBONE|DICT|INTERRES
    61   29   99 1    
    62   30   31 2    
    63   30   32 1    
    64   32   33 1    
    65   32   34 1    
    66   32  100 1    
    67   33  101 1    
    68   33  102 1    
    69   33  103 1    
    70   34   35 am   BACKBONE|DICT|INTERRES
    71   34  104 1    
    72   35   36 2    
    73   37   38 2    
    74   37   39 am   BACKBONE|DICT|INTERRES
    75   39   40 1    
    76   39  105 1    
    77   40   41 1    
    78   40   42 1    
    79   40  106 1    
    80   41  107 1    
    81   41  108 1    
    82   41  109 1    
    83   42   43 2    
    84   42   44 am   BACKBONE|DICT|INTERRES
    85   44   45 1    
    86   44  110 1    
    87   45   46 1    
    88   45   47 1    
    89   45  111 1    
    90   46  112 1    
    91   46  113 1    
    92   46  114 1    
    93   47   48 2    
    94   47   49 am   BACKBONE|DICT|INTERRES
    95   49   50 1    
    96   49  115 1    
    97   50   51 1    
    98   50   52 1    
    99   50  116 1    
   100   51  117 1    
   101   51  118 1    
   102   51  119 1    
   103   52   53 2    
   104   52   54 am   BACKBONE|DICT|INTERRES
   105   54   55 1    
   106   54  120 1    
   107   55   56 1    
   108   55   57 1    
   109   55  121 1    
   110   56  122 1    
   111   56  123 1    
   112   56  124 1    
   113   57   58 2    
   114   57   59 am   BACKBONE|DICT|INTERRES
   115   59   60 1    
   116   59  125 1    
   117   60   61 1    
   118   60   62 1    
   119   60  126 1    
   120   61  127 1    
   121   61  128 1    
   122   61  129 1    
   123   62   63 2    
   124   62   64 am   BACKBONE|DICT|INTERRES
   125   64   65 1    
   126   64  130 1    
   127   65   66 1    
   128   65   69 1    
   129   65  131 1    
   130   66   67 am   BACKBONE|DICT|INTERRES
   131   66   68 2    
   132   67  132 1    
   133   67  133 1    
   134   69   70 1    
   135   69  134 1    
   136   69  135 1    
   137   70   71 1    
   138   71  136 1    
   139   71  137 1    
@<TRIPOS>SUBSTRUCTURE
     1 UNK         1 GROUP             0       ****    0 ROOT    
