@<TRIPOS>MOLECULE
3R136
137   139    1
SMALL
USER_CHARGES


@<TRIPOS>ATOM
      1 CA         31.0876   19.3084    1.2341 C.3       0 UNK        -0.1979 
      2 C          30.7136   20.0585   -0.0357 C.2       0 UNK         0.4864 
      3 O          31.5489   20.2041   -0.9294 O.2       0 UNK        -0.5359 
      4 N          29.4677   20.5339   -0.1206 N.am      1 UNK        -0.4318 
      5 CA         28.9085   21.2662   -1.2545 C.3       1 UNK         0.0824 
      6 C6         29.3976   22.7413   -1.3221 C.3       12 UNK        -0.0944 
      7 S7         28.8429   23.8088    0.0544 S.3       12 UNK        -0.2672 
      8 C8         30.2695   23.7189    1.1837 C.3       12 UNK         0.0333 
      9 C9         30.1289   24.6594    2.3750 C.ar      12 UNK        -0.0807 
     10 C10        31.1681   25.5356    2.7035 C.ar      12 UNK        -0.0894 
     11 C11        31.0658   26.3798    3.8139 C.ar      12 UNK        -0.0804 
     12 C12        29.8994   26.3604    4.5879 C.ar      12 UNK        -0.0824 
     13 C13        28.8508   25.4893    4.2699 C.ar      12 UNK        -0.0762 
     14 C14        28.9801   24.6328    3.1723 C.ar      12 UNK        -0.0782 
     15 C15        27.5796   25.4590    5.1101 C.3       12 UNK         0.0230 
     16 S16        26.1027   25.9310    4.1467 S.3       12 UNK        -0.2608 
     17 C17        26.3454   27.7280    3.9359 C.3       12 UNK        -0.0989 
     18 CA         27.1801   28.0745    2.6773 C.3       5 UNK         0.0716 
     19 N          26.5770   27.5530    1.4513 N.am      5 UNK        -0.4135 
     20 C          27.2120   27.3939    0.2846 C.2       4 UNK         0.5031 
     21 O          28.3924   27.6964    0.1004 O.2       4 UNK        -0.5229 
     22 CA         26.3882   26.7546   -0.8502 C.3       4 UNK         0.0329 
     23 CB         27.1958   26.5799   -2.1504 C.3       4 UNK        -0.2001 
     24 N          25.8542   25.4515   -0.4462 N.am      4 UNK        -0.4303 
     25 C          24.7547   25.2550    0.2936 C.2       3 UNK         0.5044 
     26 O          24.0578   26.1800    0.7164 O.2       3 UNK        -0.5152 
     27 CA         24.3958   23.7968    0.6511 C.3       3 UNK         0.0319 
     28 CB         22.8891   23.6102    0.9275 C.3       3 UNK        -0.2001 
     29 N          24.8704   22.8013   -0.3206 N.am      3 UNK        -0.4354 
     30 C          24.5632   22.7069   -1.6232 C.2       2 UNK         0.4964 
     31 O          23.8125   23.4892   -2.2085 O.2       2 UNK        -0.5047 
     32 CA         25.2299   21.5504   -2.4009 C.3       2 UNK         0.0288 
     33 CB         24.8652   21.5542   -3.8982 C.3       2 UNK        -0.2113 
     34 N          26.6922   21.5544   -2.2728 N.am      2 UNK        -0.4145 
     35 C          27.3758   21.1339   -1.2000 C.2       1 UNK         0.5006 
     36 O          26.8332   20.6864   -0.1832 O.2       1 UNK        -0.5103 
     37 C          27.4679   29.5852    2.5842 C.2       5 UNK         0.5055 
     38 O          26.9125   30.2771    1.7269 O.2       5 UNK        -0.5220 
     39 N          28.3508   30.0516    3.4801 N.am      6 UNK        -0.4450 
     40 CA         28.9640   31.3873    3.5202 C.3       6 UNK         0.0367 
     41 CB         27.9146   32.5135    3.6348 C.3       6 UNK        -0.1929 
     42 C          29.9781   31.6229    2.3820 C.2       6 UNK         0.5070 
     43 O          30.3430   32.7690    2.1131 O.2       6 UNK        -0.5237 
     44 N          30.4554   30.5340    1.7598 N.am      7 UNK        -0.4739 
     45 CA         31.5979   30.5232    0.8479 C.3       7 UNK         0.0276 
     46 CB         31.7259   29.1310    0.2099 C.3       7 UNK        -0.1927 
     47 C          32.8739   30.8815    1.6213 C.2       7 UNK         0.5013 
     48 O          33.0879   30.3296    2.7041 O.2       7 UNK        -0.5193 
     49 N          33.6653   31.8176    1.0761 N.am      8 UNK        -0.4253 
     50 CA         34.8473   32.4266    1.7037 C.3       8 UNK         0.0242 
     51 CB         36.0182   31.4224    1.7370 C.3       8 UNK        -0.2000 
     52 C          34.5218   33.0314    3.0862 C.2       8 UNK         0.4948 
     53 O          35.2247   32.7643    4.0647 O.2       8 UNK        -0.5275 
     54 N          33.4053   33.7748    3.1449 N.am      9 UNK        -0.4246 
     55 CA         32.7500   34.3788    4.3142 C.3       9 UNK         0.0261 
     56 CB         33.6610   35.4071    5.0137 C.3       9 UNK        -0.1959 
     57 C          32.1890   33.3517    5.3146 C.2       9 UNK         0.5033 
     58 O          31.0092   33.4251    5.6592 O.2       9 UNK        -0.5390 
     59 N          33.0360   32.4177    5.7521 N.am      10 UNK        -0.4215 
     60 CA         32.7310   31.3258    6.6701 C.3       10 UNK         0.0240 
     61 CB         32.5687   31.8570    8.1110 C.3       10 UNK        -0.1982 
     62 C          33.8204   30.2508    6.5428 C.2       10 UNK         0.4970 
     63 O          34.4640   29.9111    7.5372 O.2       10 UNK        -0.4916 
     64 N          34.0207   29.7538    5.3147 N.am      11 UNK        -0.4279 
     65 CA         34.9979   28.7151    4.9494 C.3       11 UNK         0.1003 
     66 C          36.4861   29.1801    5.0355 C.2       11 UNK         0.5709 
     67 N          36.7884   30.4717    4.9740 N.am      11 UNK        -0.7358 
     68 O          37.3944   28.3580    5.1366 O.2       11 UNK        -0.4999 
     69 C69        34.7634   27.3555    5.6795 C.3       12 UNK        -0.0954 
     70 S70        33.0914   26.6070    5.6533 S.3       12 UNK        -0.2268 
     71 C71        32.2326   27.2818    4.1952 C.3       12 UNK         0.0203 
     72 H72        31.3886   18.2891    0.9936 H         1 UNK         0.0888 
     73 H73        31.9223   19.8034    1.7297 H         1 UNK         0.0888 
     74 H74        30.2566   19.2598    1.9379 H         1 UNK         0.0888 
     75 H75        28.7880   20.3517    0.6085 H         1 UNK         0.3017 
     76 H76        29.2284   20.7560   -2.1658 H         1 UNK         0.0873 
     77 H77        30.4865   22.7696   -1.3816 H         1 UNK         0.0745 
     78 H78        29.0556   23.2025   -2.2499 H         1 UNK         0.0745 
     79 H79        31.1771   23.9466    0.6226 H         1 UNK         0.0705 
     80 H80        30.3759   22.6986    1.5525 H         1 UNK         0.0705 
     81 H81        32.0691   25.5466    2.1054 H         1 UNK         0.1334 
     82 H82        29.8212   27.0089    5.4499 H         1 UNK         0.1417 
     83 H83        28.1747   23.9531    2.9286 H         1 UNK         0.1562 
     84 H84        27.6674   26.1059    5.9843 H         1 UNK         0.0748 
     85 H85        27.4374   24.4476    5.4933 H         1 UNK         0.0748 
     86 H86        26.8096   28.1223    4.8416 H         1 UNK         0.0940 
     87 H87        25.3612   28.1971    3.8768 H         1 UNK         0.0940 
     88 H88        28.1525   27.5905    2.7664 H         1 UNK         0.0703 
     89 H89        25.6052   27.2697    1.5045 H         1 UNK         0.3081 
     90 H90        25.5563   27.4286   -1.0656 H         1 UNK         0.0719 
     91 H91        28.0600   25.9306   -2.0066 H         1 UNK         0.0809 
     92 H92        26.5826   26.1527   -2.9441 H         1 UNK         0.0809 
     93 H93        27.5673   27.5404   -2.5097 H         1 UNK         0.0809 
     94 H94        26.4112   24.6456   -0.6920 H         1 UNK         0.2990 
     95 H95        24.9276   23.5844    1.5799 H         1 UNK         0.0690 
     96 H96        22.6608   22.5810    1.2044 H         1 UNK         0.0788 
     97 H97        22.2842   23.8663    0.0571 H         1 UNK         0.0788 
     98 H98        22.5592   24.2451    1.7509 H         1 UNK         0.0788 
     99 H99        25.5155   22.1036    0.0415 H         1 UNK         0.2993 
    100 H100       24.8457   20.6220   -1.9719 H         1 UNK         0.0949 
    101 H101       25.2134   22.4597   -4.3968 H         1 UNK         0.0767 
    102 H102       25.2995   20.6978   -4.4146 H         1 UNK         0.0767 
    103 H103       23.7847   21.4986   -4.0385 H         1 UNK         0.0767 
    104 H104       27.2046   21.9350   -3.0556 H         1 UNK         0.3013 
    105 H105       28.7218   29.3995    4.1571 H         1 UNK         0.3121 
    106 H106       29.5528   31.4082    4.4384 H         1 UNK         0.0774 
    107 H107       28.3955   33.4645    3.8678 H         1 UNK         0.0815 
    108 H108       27.3609   32.6533    2.7063 H         1 UNK         0.0815 
    109 H109       27.1979   32.3113    4.4304 H         1 UNK         0.0815 
    110 H110       30.1025   29.6315    2.0391 H         1 UNK         0.2987 
    111 H111       31.4216   31.2613    0.0626 H         1 UNK         0.0949 
    112 H112       32.5742   29.0908   -0.4745 H         1 UNK         0.0806 
    113 H113       31.8747   28.3533    0.9607 H         1 UNK         0.0806 
    114 H114       30.8351   28.8745   -0.3637 H         1 UNK         0.0806 
    115 H115       33.3970   32.2080    0.1829 H         1 UNK         0.3010 
    116 H116       35.1484   33.2630    1.0711 H         1 UNK         0.0829 
    117 H117       36.2829   31.0927    0.7326 H         1 UNK         0.0813 
    118 H118       36.9106   31.8711    2.1753 H         1 UNK         0.0813 
    119 H119       35.7756   30.5364    2.3227 H         1 UNK         0.0813 
    120 H120       32.8715   33.8556    2.2896 H         1 UNK         0.3038 
    121 H121       31.8914   34.9227    3.9165 H         1 UNK         0.0769 
    122 H122       33.1301   35.9052    5.8260 H         1 UNK         0.0811 
    123 H123       33.9896   36.1805    4.3196 H         1 UNK         0.0811 
    124 H124       34.5498   34.9458    5.4451 H         1 UNK         0.0811 
    125 H125       33.9777   32.4368    5.3614 H         1 UNK         0.3204 
    126 H126       31.7907   30.8637    6.3622 H         1 UNK         0.0748 
    127 H127       32.3567   31.0439    8.8064 H         1 UNK         0.0771 
    128 H128       33.4731   32.3587    8.4573 H         1 UNK         0.0771 
    129 H129       31.7438   32.5652    8.1874 H         1 UNK         0.0771 
    130 H130       33.4928   30.1185    4.5248 H         1 UNK         0.2980 
    131 H131       34.8447   28.5389    3.8854 H         1 UNK         0.0545 
    132 H132       36.0810   31.1777    4.8037 H         1 UNK         0.3459 
    133 H133       37.7557   30.7450    5.0306 H         1 UNK         0.3459 
    134 H134       35.0560   27.4417    6.7270 H         1 UNK         0.0616 
    135 H135       35.4304   26.6021    5.2572 H         1 UNK         0.0616 
    136 H136       31.8670   28.2866    4.4092 H         1 UNK         0.0634 
    137 H137       32.9289   27.3679    3.3604 H         1 UNK         0.0634 
@<TRIPOS>BOND
     1    1    2 1    
     2    1   72 1    
     3    1   73 1    
     4    1   74 1    
     5    2    3 2    
     6    2    4 am   BACKBONE|DICT|INTERRES
     7    4    5 1    
     8    4   75 1    
     9    5    6 1    
    10    5   35 1    
    11    5   76 1    
    12    6    7 1    
    13    6   77 1    
    14    6   78 1    
    15    7    8 1    
    16    8    9 1    
    17    8   79 1    
    18    8   80 1    
    19    9   10 ar   
    20    9   14 ar   
    21   10   11 ar   
    22   10   81 1    
    23   11   12 ar   
    24   11   71 1    
    25   12   13 ar   
    26   12   82 1    
    27   13   14 ar   
    28   13   15 1    
    29   14   83 1    
    30   15   16 1    
    31   15   84 1    
    32   15   85 1    
    33   16   17 1    
    34   17   18 1    
    35   17   86 1    
    36   17   87 1    
    37   18   19 1    
    38   18   37 1    
    39   18   88 1    
    40   19   20 am   BACKBONE|DICT|INTERRES
    41   19   89 1    
    42   20   21 2    
    43   20   22 1    
    44   22   23 1    
    45   22   24 1    
    46   22   90 1    
    47   23   91 1    
    48   23   92 1    
    49   23   93 1    
    50   24   25 am   BACKBONE|DICT|INTERRES
    51   24   94 1    
    52   25   26 2    
    53   25   27 1    
    54   27   28 1    
    55   27   29 1    
    56   27   95 1    
    57   28   96 1    
    58   28   97 1    
    59   28   98 1    
    60   29   30 am   BACKBONE|DICT|INTERRES
    61   29   99 1    
    62   30   31 2    
    63   30   32 1    
    64   32   33 1    
    65   32   34 1    
    66   32  100 1    
    67   33  101 1    
    68   33  102 1    
    69   33  103 1    
    70   34   35 am   BACKBONE|DICT|INTERRES
    71   34  104 1    
    72   35   36 2    
    73   37   38 2    
    74   37   39 am   BACKBONE|DICT|INTERRES
    75   39   40 1    
    76   39  105 1    
    77   40   41 1    
    78   40   42 1    
    79   40  106 1    
    80   41  107 1    
    81   41  108 1    
    82   41  109 1    
    83   42   43 2    
    84   42   44 am   BACKBONE|DICT|INTERRES
    85   44   45 1    
    86   44  110 1    
    87   45   46 1    
    88   45   47 1    
    89   45  111 1    
    90   46  112 1    
    91   46  113 1    
    92   46  114 1    
    93   47   48 2    
    94   47   49 am   BACKBONE|DICT|INTERRES
    95   49   50 1    
    96   49  115 1    
    97   50   51 1    
    98   50   52 1    
    99   50  116 1    
   100   51  117 1    
   101   51  118 1    
   102   51  119 1    
   103   52   53 2    
   104   52   54 am   BACKBONE|DICT|INTERRES
   105   54   55 1    
   106   54  120 1    
   107   55   56 1    
   108   55   57 1    
   109   55  121 1    
   110   56  122 1    
   111   56  123 1    
   112   56  124 1    
   113   57   58 2    
   114   57   59 am   BACKBONE|DICT|INTERRES
   115   59   60 1    
   116   59  125 1    
   117   60   61 1    
   118   60   62 1    
   119   60  126 1    
   120   61  127 1    
   121   61  128 1    
   122   61  129 1    
   123   62   63 2    
   124   62   64 am   BACKBONE|DICT|INTERRES
   125   64   65 1    
   126   64  130 1    
   127   65   66 1    
   128   65   69 1    
   129   65  131 1    
   130   66   67 am   BACKBONE|DICT|INTERRES
   131   66   68 2    
   132   67  132 1    
   133   67  133 1    
   134   69   70 1    
   135   69  134 1    
   136   69  135 1    
   137   70   71 1    
   138   71  136 1    
   139   71  137 1    
@<TRIPOS>SUBSTRUCTURE
     1 UNK         1 GROUP             0       ****    0 ROOT    
