@<TRIPOS>MOLECULE
3R136
137   139    1
SMALL
USER_CHARGES


@<TRIPOS>ATOM
      1 CA         30.3255   19.7564    5.3709 C.3       0 UNK        -0.1979 
      2 C          29.0508   20.4104    4.8579 C.2       0 UNK         0.4864 
      3 O          28.0804   20.5311    5.6078 O.2       0 UNK        -0.5359 
      4 N          29.0427   20.8235    3.5846 N.am      1 UNK        -0.4318 
      5 CA         27.9420   21.5458    2.9407 C.3       1 UNK         0.0824 
      6 C6         28.0314   21.4511    1.3953 C.3       12 UNK        -0.0944 
      7 S7         29.6107   22.0548    0.6967 S.3       12 UNK        -0.2672 
      8 C8         29.0510   23.5403   -0.1848 C.3       12 UNK         0.0333 
      9 C9         30.1126   24.6264   -0.1723 C.ar      12 UNK        -0.0807 
     10 C10        30.0999   25.5933    0.8341 C.ar      12 UNK        -0.0894 
     11 C11        31.0447   26.6207    0.8468 C.ar      12 UNK        -0.0804 
     12 C12        32.0171   26.6742   -0.1570 C.ar      12 UNK        -0.0824 
     13 C13        32.0421   25.7082   -1.1713 C.ar      12 UNK        -0.0762 
     14 C14        31.0911   24.6828   -1.1686 C.ar      12 UNK        -0.0782 
     15 C15        33.1063   25.7488   -2.2607 C.3       12 UNK         0.0230 
     16 S16        32.4843   26.4827   -3.8113 S.3       12 UNK        -0.2608 
     17 C17        32.3315   28.2408   -3.3424 C.3       12 UNK        -0.0989 
     18 CA         30.8981   28.8252   -3.4789 C.3       5 UNK         0.0716 
     19 N          29.8404   27.9019   -3.0312 N.am      5 UNK        -0.4135 
     20 C          28.5280   28.0706   -3.2613 C.2       4 UNK         0.5031 
     21 O          28.0538   29.0273   -3.8743 O.2       4 UNK        -0.5229 
     22 CA         27.5828   27.0035   -2.6970 C.3       4 UNK         0.0329 
     23 CB         28.0052   25.5840   -3.1349 C.3       4 UNK        -0.2001 
     24 N          27.5049   27.1730   -1.2445 N.am      4 UNK        -0.4303 
     25 C          26.7565   26.4753   -0.3825 C.2       3 UNK         0.5044 
     26 O          26.0790   25.4852   -0.6674 O.2       3 UNK        -0.5152 
     27 CA         26.7270   27.0170    1.0488 C.3       3 UNK         0.0319 
     28 CB         25.6406   28.1027    1.1869 C.3       3 UNK        -0.2001 
     29 N          26.4861   25.9419    2.0062 N.am      3 UNK        -0.4354 
     30 C          26.7556   26.0308    3.3152 C.2       2 UNK         0.4964 
     31 O          27.2718   27.0187    3.8436 O.2       2 UNK        -0.5047 
     32 CA         26.3631   24.8329    4.1936 C.3       2 UNK         0.0288 
     33 CB         24.8783   24.9193    4.5837 C.3       2 UNK        -0.2113 
     34 N          26.6332   23.5284    3.5801 N.am      2 UNK        -0.4145 
     35 C          27.8599   23.0012    3.4582 C.2       1 UNK         0.5006 
     36 O          28.8924   23.6068    3.7575 O.2       1 UNK        -0.5103 
     37 C          30.8214   30.1686   -2.7247 C.2       5 UNK         0.5055 
     38 O          31.0164   31.2342   -3.3108 O.2       5 UNK        -0.5220 
     39 N          30.5250   30.0560   -1.4292 N.am      6 UNK        -0.4450 
     40 CA         30.1875   31.1057   -0.4812 C.3       6 UNK         0.0367 
     41 CB         31.4671   31.6574    0.1709 C.3       6 UNK        -0.1929 
     42 C          29.1958   30.4587    0.5005 C.2       6 UNK         0.5070 
     43 O          28.5164   29.5086    0.1000 O.2       6 UNK        -0.5237 
     44 N          29.1266   30.9272    1.7521 N.am      7 UNK        -0.4739 
     45 CA         28.2408   30.3663    2.7737 C.3       7 UNK         0.0276 
     46 CB         26.9213   31.1571    2.7971 C.3       7 UNK        -0.1927 
     47 C          28.9019   30.3879    4.1549 C.2       7 UNK         0.5013 
     48 O          29.5989   31.3540    4.4781 O.2       7 UNK        -0.5193 
     49 N          28.6049   29.3509    4.9527 N.am      8 UNK        -0.4253 
     50 CA         28.8655   29.2118    6.3898 C.3       8 UNK         0.0242 
     51 CB         27.7909   29.9922    7.1800 C.3       8 UNK        -0.2000 
     52 C          30.3105   29.5591    6.7968 C.2       8 UNK         0.4948 
     53 O          31.2323   28.8243    6.4419 O.2       8 UNK        -0.5275 
     54 N          30.4923   30.6744    7.5182 N.am      9 UNK        -0.4246 
     55 CA         31.7699   31.1664    8.0457 C.3       9 UNK         0.0261 
     56 CB         31.5099   32.4291    8.8837 C.3       9 UNK        -0.1959 
     57 C          32.8571   31.4385    6.9881 C.2       9 UNK         0.5033 
     58 O          34.0336   31.4956    7.3491 O.2       9 UNK        -0.5390 
     59 N          32.4675   31.5853    5.7137 N.am      10 UNK        -0.4215 
     60 CA         33.3877   31.7194    4.5838 C.3       10 UNK         0.0240 
     61 CB         32.6153   32.2616    3.3749 C.3       10 UNK        -0.1982 
     62 C          34.1153   30.4111    4.2142 C.2       10 UNK         0.4970 
     63 O          35.1366   30.4863    3.5295 O.2       10 UNK        -0.4916 
     64 N          33.5975   29.2549    4.6510 N.am      11 UNK        -0.4279 
     65 CA         34.1796   27.9253    4.4040 C.3       11 UNK         0.1003 
     66 C          34.3160   27.0502    5.6808 C.2       11 UNK         0.5709 
     67 N          33.5554   27.2856    6.7425 N.am      11 UNK        -0.7358 
     68 O          35.1558   26.1536    5.7190 O.2       11 UNK        -0.4999 
     69 C69        33.4619   27.1745    3.2503 C.3       12 UNK        -0.0954 
     70 S70        31.6618   26.9992    3.5095 S.3       12 UNK        -0.2268 
     71 C71        30.9979   27.6608    1.9547 C.3       12 UNK         0.0203 
     72 H72        31.0932   19.6998    4.5991 H         1 UNK         0.0888 
     73 H73        30.7281   20.3259    6.2081 H         1 UNK         0.0888 
     74 H74        30.1160   18.7440    5.7154 H         1 UNK         0.0888 
     75 H75        29.8787   20.7377    3.0237 H         1 UNK         0.3017 
     76 H76        27.0170   21.0462    3.2379 H         1 UNK         0.0873 
     77 H77        27.1858   21.9607    0.9302 H         1 UNK         0.0745 
     78 H78        27.9277   20.4064    1.0977 H         1 UNK         0.0745 
     79 H79        28.7839   23.2730   -1.2080 H         1 UNK         0.0705 
     80 H80        28.1427   23.9250    0.2785 H         1 UNK         0.0705 
     81 H81        29.3577   25.5417    1.6192 H         1 UNK         0.1334 
     82 H82        32.7589   27.4607   -0.1406 H         1 UNK         0.1417 
     83 H83        31.1084   23.9313   -1.9468 H         1 UNK         0.1562 
     84 H84        33.4494   24.7341   -2.4686 H         1 UNK         0.0748 
     85 H85        33.9864   26.2978   -1.9218 H         1 UNK         0.0748 
     86 H86        33.0160   28.8118   -3.9727 H         1 UNK         0.0940 
     87 H87        32.7131   28.3660   -2.3284 H         1 UNK         0.0940 
     88 H88        30.7187   29.0292   -4.5368 H         1 UNK         0.0703 
     89 H89        30.1516   27.0709   -2.5482 H         1 UNK         0.3081 
     90 H90        26.5876   27.1989   -3.1012 H         1 UNK         0.0719 
     91 H91        28.9512   25.2822   -2.6948 H         1 UNK         0.0809 
     92 H92        27.2589   24.8366   -2.8686 H         1 UNK         0.0809 
     93 H93        28.1242   25.5338   -4.2181 H         1 UNK         0.0809 
     94 H94        27.9586   28.0105   -0.8799 H         1 UNK         0.2990 
     95 H95        27.7074   27.4387    1.2668 H         1 UNK         0.0690 
     96 H96        25.6177   28.5271    2.1899 H         1 UNK         0.0788 
     97 H97        24.6483   27.7042    0.9725 H         1 UNK         0.0788 
     98 H98        25.8195   28.9258    0.4939 H         1 UNK         0.0788 
     99 H99        26.0737   25.1027    1.6200 H         1 UNK         0.2993 
    100 H100       26.9532   24.9019    5.1107 H         1 UNK         0.0949 
    101 H101       24.6078   24.1356    5.2918 H         1 UNK         0.0767 
    102 H102       24.6560   25.8750    5.0612 H         1 UNK         0.0767 
    103 H103       24.2241   24.8294    3.7155 H         1 UNK         0.0767 
    104 H104       25.8301   22.9758    3.3156 H         1 UNK         0.3013 
    105 H105       30.2940   29.1331   -1.0864 H         1 UNK         0.3121 
    106 H106       29.6634   31.9100   -1.0012 H         1 UNK         0.0774 
    107 H107       31.2441   32.5003    0.8249 H         1 UNK         0.0815 
    108 H108       31.9831   30.8947    0.7545 H         1 UNK         0.0815 
    109 H109       32.1653   32.0216   -0.5830 H         1 UNK         0.0815 
    110 H110       29.7299   31.6781    2.0598 H         1 UNK         0.2987 
    111 H111       28.0157   29.3261    2.5381 H         1 UNK         0.0949 
    112 H112       27.0875   32.2081    3.0366 H         1 UNK         0.0806 
    113 H113       26.4132   31.1097    1.8339 H         1 UNK         0.0806 
    114 H114       26.2366   30.7548    3.5449 H         1 UNK         0.0806 
    115 H115       28.0831   28.5757    4.5464 H         1 UNK         0.3010 
    116 H116       28.7393   28.1527    6.6199 H         1 UNK         0.0829 
    117 H117       26.7937   29.6149    6.9525 H         1 UNK         0.0813 
    118 H118       27.9298   29.8839    8.2568 H         1 UNK         0.0813 
    119 H119       27.7962   31.0570    6.9432 H         1 UNK         0.0813 
    120 H120       29.6768   31.2300    7.7319 H         1 UNK         0.3038 
    121 H121       32.1626   30.3919    8.7078 H         1 UNK         0.0769 
    122 H122       31.0847   33.2324    8.2805 H         1 UNK         0.0811 
    123 H123       32.4354   32.8060    9.3216 H         1 UNK         0.0811 
    124 H124       30.8251   32.2268    9.7075 H         1 UNK         0.0811 
    125 H125       31.4782   31.5229    5.4926 H         1 UNK         0.3204 
    126 H126       34.1522   32.4517    4.8523 H         1 UNK         0.0748 
    127 H127       32.1299   33.2108    3.6029 H         1 UNK         0.0771 
    128 H128       33.2822   32.4315    2.5284 H         1 UNK         0.0771 
    129 H129       31.8474   31.5579    3.0562 H         1 UNK         0.0771 
    130 H130       32.7521   29.2613    5.2118 H         1 UNK         0.2980 
    131 H131       35.2128   28.0636    4.0799 H         1 UNK         0.0545 
    132 H132       32.7700   27.9295    6.6876 H         1 UNK         0.3459 
    133 H133       33.6745   26.7139    7.5627 H         1 UNK         0.3459 
    134 H134       33.6422   27.7071    2.3160 H         1 UNK         0.0616 
    135 H135       33.8891   26.1807    3.1057 H         1 UNK         0.0616 
    136 H136       31.5295   28.5706    1.6736 H         1 UNK         0.0634 
    137 H137       29.9619   27.9508    2.1267 H         1 UNK         0.0634 
@<TRIPOS>BOND
     1    1    2 1    
     2    1   72 1    
     3    1   73 1    
     4    1   74 1    
     5    2    3 2    
     6    2    4 am   BACKBONE|DICT|INTERRES
     7    4    5 1    
     8    4   75 1    
     9    5    6 1    
    10    5   35 1    
    11    5   76 1    
    12    6    7 1    
    13    6   77 1    
    14    6   78 1    
    15    7    8 1    
    16    8    9 1    
    17    8   79 1    
    18    8   80 1    
    19    9   10 ar   
    20    9   14 ar   
    21   10   11 ar   
    22   10   81 1    
    23   11   12 ar   
    24   11   71 1    
    25   12   13 ar   
    26   12   82 1    
    27   13   14 ar   
    28   13   15 1    
    29   14   83 1    
    30   15   16 1    
    31   15   84 1    
    32   15   85 1    
    33   16   17 1    
    34   17   18 1    
    35   17   86 1    
    36   17   87 1    
    37   18   19 1    
    38   18   37 1    
    39   18   88 1    
    40   19   20 am   BACKBONE|DICT|INTERRES
    41   19   89 1    
    42   20   21 2    
    43   20   22 1    
    44   22   23 1    
    45   22   24 1    
    46   22   90 1    
    47   23   91 1    
    48   23   92 1    
    49   23   93 1    
    50   24   25 am   BACKBONE|DICT|INTERRES
    51   24   94 1    
    52   25   26 2    
    53   25   27 1    
    54   27   28 1    
    55   27   29 1    
    56   27   95 1    
    57   28   96 1    
    58   28   97 1    
    59   28   98 1    
    60   29   30 am   BACKBONE|DICT|INTERRES
    61   29   99 1    
    62   30   31 2    
    63   30   32 1    
    64   32   33 1    
    65   32   34 1    
    66   32  100 1    
    67   33  101 1    
    68   33  102 1    
    69   33  103 1    
    70   34   35 am   BACKBONE|DICT|INTERRES
    71   34  104 1    
    72   35   36 2    
    73   37   38 2    
    74   37   39 am   BACKBONE|DICT|INTERRES
    75   39   40 1    
    76   39  105 1    
    77   40   41 1    
    78   40   42 1    
    79   40  106 1    
    80   41  107 1    
    81   41  108 1    
    82   41  109 1    
    83   42   43 2    
    84   42   44 am   BACKBONE|DICT|INTERRES
    85   44   45 1    
    86   44  110 1    
    87   45   46 1    
    88   45   47 1    
    89   45  111 1    
    90   46  112 1    
    91   46  113 1    
    92   46  114 1    
    93   47   48 2    
    94   47   49 am   BACKBONE|DICT|INTERRES
    95   49   50 1    
    96   49  115 1    
    97   50   51 1    
    98   50   52 1    
    99   50  116 1    
   100   51  117 1    
   101   51  118 1    
   102   51  119 1    
   103   52   53 2    
   104   52   54 am   BACKBONE|DICT|INTERRES
   105   54   55 1    
   106   54  120 1    
   107   55   56 1    
   108   55   57 1    
   109   55  121 1    
   110   56  122 1    
   111   56  123 1    
   112   56  124 1    
   113   57   58 2    
   114   57   59 am   BACKBONE|DICT|INTERRES
   115   59   60 1    
   116   59  125 1    
   117   60   61 1    
   118   60   62 1    
   119   60  126 1    
   120   61  127 1    
   121   61  128 1    
   122   61  129 1    
   123   62   63 2    
   124   62   64 am   BACKBONE|DICT|INTERRES
   125   64   65 1    
   126   64  130 1    
   127   65   66 1    
   128   65   69 1    
   129   65  131 1    
   130   66   67 am   BACKBONE|DICT|INTERRES
   131   66   68 2    
   132   67  132 1    
   133   67  133 1    
   134   69   70 1    
   135   69  134 1    
   136   69  135 1    
   137   70   71 1    
   138   71  136 1    
   139   71  137 1    
@<TRIPOS>SUBSTRUCTURE
     1 UNK         1 GROUP             0       ****    0 ROOT    
