@<TRIPOS>MOLECULE
3R136
137   139    1
SMALL
USER_CHARGES


@<TRIPOS>ATOM
      1 CA         27.4836   19.7511    1.9165 C.3       0 UNK        -0.1979 
      2 C          27.0163   19.4648    0.4907 C.2       0 UNK         0.4864 
      3 O          26.2893   18.4946    0.2870 O.2       0 UNK        -0.5359 
      4 N          27.3857   20.2583   -0.5289 N.am      1 UNK        -0.4318 
      5 CA         28.2319   21.4643   -0.5150 C.3       1 UNK         0.0824 
      6 C6         29.6485   21.2077    0.0792 C.3       12 UNK        -0.0944 
      7 S7         30.9898   22.0681   -0.8107 S.3       12 UNK        -0.2672 
      8 C8         32.2843   22.1703    0.4723 C.3       12 UNK         0.0333 
      9 C9         32.1424   23.4294    1.3166 C.ar      12 UNK        -0.0807 
     10 C10        32.8625   24.5831    0.9944 C.ar      12 UNK        -0.0894 
     11 C11        32.7022   25.7635    1.7294 C.ar      12 UNK        -0.0804 
     12 C12        31.7974   25.7751    2.8039 C.ar      12 UNK        -0.0824 
     13 C13        31.0796   24.6226    3.1433 C.ar      12 UNK        -0.0762 
     14 C14        31.2787   23.4502    2.4115 C.ar      12 UNK        -0.0782 
     15 C15        30.0825   24.6187    4.2952 C.3       12 UNK         0.0230 
     16 S16        28.4033   24.1884    3.7194 S.3       12 UNK        -0.2608 
     17 C17        27.5280   25.7871    3.7073 C.3       12 UNK        -0.0989 
     18 CA         28.1990   26.9197    2.8921 C.3       5 UNK         0.0716 
     19 N          28.4782   26.5595    1.4921 N.am      5 UNK        -0.4135 
     20 C          29.1833   27.3174    0.6335 C.2       4 UNK         0.5031 
     21 O          29.6930   28.3948    0.9412 O.2       4 UNK        -0.5229 
     22 CA         29.2613   26.8520   -0.8290 C.3       4 UNK         0.0329 
     23 CB         30.4112   25.8609   -1.0418 C.3       4 UNK        -0.2001 
     24 N          28.0024   26.2438   -1.2561 N.am      4 UNK        -0.4303 
     25 C          26.9443   26.9374   -1.7001 C.2       3 UNK         0.5044 
     26 O          26.9526   28.1544   -1.8804 O.2       3 UNK        -0.5152 
     27 CA         25.6472   26.1524   -1.9717 C.3       3 UNK         0.0319 
     28 CB         25.5728   25.7306   -3.4478 C.3       3 UNK        -0.2001 
     29 N          25.4973   24.9683   -1.1226 N.am      3 UNK        -0.4354 
     30 C          25.3495   24.9970    0.2098 C.2       2 UNK         0.4964 
     31 O          25.2526   26.0335    0.8667 O.2       2 UNK        -0.5047 
     32 CA         25.3626   23.6412    0.9376 C.3       2 UNK         0.0288 
     33 CB         23.9323   23.1043    1.1032 C.3       2 UNK        -0.2113 
     34 N          26.1958   22.6152    0.2968 N.am      2 UNK        -0.4145 
     35 C          27.5181   22.7074    0.0760 C.2       1 UNK         0.5006 
     36 O          28.1578   23.7347    0.3017 O.2       1 UNK        -0.5103 
     37 C          27.3863   28.2244    3.0545 C.2       5 UNK         0.5055 
     38 O          27.4137   28.8121    4.1358 O.2       5 UNK        -0.5220 
     39 N          26.7298   28.7039    1.9881 N.am      6 UNK        -0.4450 
     40 CA         26.1410   30.0452    1.9095 C.3       6 UNK         0.0367 
     41 CB         25.4017   30.1946    0.5707 C.3       6 UNK        -0.1929 
     42 C          27.1694   31.1851    2.0892 C.2       6 UNK         0.5070 
     43 O          26.7760   32.2886    2.4673 O.2       6 UNK        -0.5237 
     44 N          28.4568   30.8998    1.8444 N.am      7 UNK        -0.4739 
     45 CA         29.5899   31.7985    2.0561 C.3       7 UNK         0.0276 
     46 CB         30.3178   31.9968    0.7135 C.3       7 UNK        -0.1927 
     47 C          30.5389   31.2593    3.1445 C.2       7 UNK         0.5013 
     48 O          31.7297   31.5737    3.1048 O.2       7 UNK        -0.5193 
     49 N          30.0219   30.4824    4.1148 N.am      8 UNK        -0.4253 
     50 CA         30.7964   29.8278    5.1851 C.3       8 UNK         0.0242 
     51 CB         29.8647   29.0456    6.1250 C.3       8 UNK        -0.2000 
     52 C          31.7198   30.7489    6.0066 C.2       8 UNK         0.4948 
     53 O          32.7580   30.2865    6.4805 O.2       8 UNK        -0.5275 
     54 N          31.3583   32.0346    6.1246 N.am      9 UNK        -0.4246 
     55 CA         32.1799   33.0833    6.7366 C.3       9 UNK         0.0261 
     56 CB         31.3527   34.3743    6.8509 C.3       9 UNK        -0.1959 
     57 C          33.5009   33.3550    5.9884 C.2       9 UNK         0.5033 
     58 O          34.4718   33.7624    6.6282 O.2       9 UNK        -0.5390 
     59 N          33.5248   33.1231    4.6671 N.am      10 UNK        -0.4215 
     60 CA         34.7305   33.1875    3.8399 C.3       10 UNK         0.0240 
     61 CB         34.3577   33.6135    2.4092 C.3       10 UNK        -0.1982 
     62 C          35.4732   31.8415    3.8293 C.2       10 UNK         0.4970 
     63 O          36.7041   31.8423    3.7884 O.2       10 UNK        -0.4916 
     64 N          34.7258   30.7280    3.8656 N.am      11 UNK        -0.4279 
     65 CA         35.2634   29.3581    3.9328 C.3       11 UNK         0.1003 
     66 C          36.0464   29.0702    5.2433 C.2       11 UNK         0.5709 
     67 N          35.5428   29.4913    6.3979 N.am      11 UNK        -0.7358 
     68 O          37.1146   28.4644    5.2094 O.2       11 UNK        -0.4999 
     69 C69        34.1693   28.2793    3.7208 C.3       12 UNK        -0.0954 
     70 S70        33.1980   28.5375    2.1981 S.3       12 UNK        -0.2268 
     71 C71        33.5126   26.9881    1.2890 C.3       12 UNK         0.0203 
     72 H72        27.4735   20.8120    2.1579 H         1 UNK         0.0888 
     73 H73        26.8302   19.2538    2.6327 H         1 UNK         0.0888 
     74 H74        28.4917   19.3673    2.0678 H         1 UNK         0.0888 
     75 H75        27.0482   20.0084   -1.4487 H         1 UNK         0.3017 
     76 H76        28.3598   21.7028   -1.5718 H         1 UNK         0.0873 
     77 H77        29.6750   21.4579    1.1378 H         1 UNK         0.0745 
     78 H78        29.8941   20.1460    0.0242 H         1 UNK         0.0745 
     79 H79        33.2591   22.1618   -0.0175 H         1 UNK         0.0705 
     80 H80        32.2564   21.2809    1.1040 H         1 UNK         0.0705 
     81 H81        33.5366   24.5690    0.1486 H         1 UNK         0.1334 
     82 H82        31.6375   26.6763    3.3770 H         1 UNK         0.1417 
     83 H83        30.7301   22.5615    2.6856 H         1 UNK         0.1562 
     84 H84        30.0744   25.5719    4.8255 H         1 UNK         0.0748 
     85 H85        30.3994   23.8720    5.0245 H         1 UNK         0.0748 
     86 H86        27.4108   26.0927    4.7494 H         1 UNK         0.0940 
     87 H87        26.5167   25.6092    3.3387 H         1 UNK         0.0940 
     88 H88        29.1680   27.1318    3.3448 H         1 UNK         0.0703 
     89 H89        28.1532   25.6494    1.1841 H         1 UNK         0.3081 
     90 H90        29.4615   27.7279   -1.4503 H         1 UNK         0.0719 
     91 H91        30.4306   25.4795   -2.0626 H         1 UNK         0.0809 
     92 H92        31.3703   26.3433   -0.8589 H         1 UNK         0.0809 
     93 H93        30.3393   25.0088   -0.3665 H         1 UNK         0.0809 
     94 H94        27.9039   25.2515   -1.0759 H         1 UNK         0.2990 
     95 H95        24.8095   26.8213   -1.7631 H         1 UNK         0.0690 
     96 H96        26.3774   25.0438   -3.7136 H         1 UNK         0.0788 
     97 H97        25.6539   26.5977   -4.1051 H         1 UNK         0.0788 
     98 H98        24.6245   25.2428   -3.6747 H         1 UNK         0.0788 
     99 H99        25.5567   24.0692   -1.5780 H         1 UNK         0.2993 
    100 H100       25.7773   23.8145    1.9322 H         1 UNK         0.0949 
    101 H101       23.4728   22.8730    0.1412 H         1 UNK         0.0767 
    102 H102       23.9158   22.1990    1.7108 H         1 UNK         0.0767 
    103 H103       23.2957   23.8372    1.6014 H         1 UNK         0.0767 
    104 H104       25.7360   21.7495    0.0538 H         1 UNK         0.3013 
    105 H105       26.7025   28.1407    1.1494 H         1 UNK         0.3121 
    106 H106       25.4115   30.1320    2.7175 H         1 UNK         0.0774 
    107 H107       24.8819   31.1522    0.5181 H         1 UNK         0.0815 
    108 H108       26.0895   30.1527   -0.2745 H         1 UNK         0.0815 
    109 H109       24.6544   29.4119    0.4369 H         1 UNK         0.0815 
    110 H110       28.7069   29.9622    1.5366 H         1 UNK         0.2987 
    111 H111       29.2444   32.7747    2.4020 H         1 UNK         0.0949 
    112 H112       30.7511   31.0626    0.3532 H         1 UNK         0.0806 
    113 H113       29.6400   32.3709   -0.0540 H         1 UNK         0.0806 
    114 H114       31.1297   32.7196    0.8067 H         1 UNK         0.0806 
    115 H115       29.0348   30.2548    4.0743 H         1 UNK         0.3010 
    116 H116       31.4397   29.1031    4.6892 H         1 UNK         0.0829 
    117 H117       30.4075   28.6577    6.9887 H         1 UNK         0.0813 
    118 H118       29.0533   29.6690    6.5019 H         1 UNK         0.0813 
    119 H119       29.4265   28.1841    5.6234 H         1 UNK         0.0813 
    120 H120       30.4847   32.3222    5.7085 H         1 UNK         0.3038 
    121 H121       32.4394   32.7524    7.7449 H         1 UNK         0.0769 
    122 H122       31.9308   35.1673    7.3287 H         1 UNK         0.0811 
    123 H123       30.4577   34.2211    7.4543 H         1 UNK         0.0811 
    124 H124       31.0416   34.7430    5.8723 H         1 UNK         0.0811 
    125 H125       32.6981   32.7378    4.2157 H         1 UNK         0.3204 
    126 H126       35.4080   33.9419    4.2466 H         1 UNK         0.0748 
    127 H127       35.2505   33.7212    1.7918 H         1 UNK         0.0771 
    128 H128       33.7123   32.8828    1.9197 H         1 UNK         0.0771 
    129 H129       33.8421   34.5741    2.4033 H         1 UNK         0.0771 
    130 H130       33.7183   30.8115    3.8411 H         1 UNK         0.2980 
    131 H131       35.9757   29.2617    3.1107 H         1 UNK         0.0545 
    132 H132       34.6205   29.9184    6.4286 H         1 UNK         0.3459 
    133 H133       36.0443   29.3138    7.2529 H         1 UNK         0.3459 
    134 H134       34.6242   27.2875    3.6891 H         1 UNK         0.0616 
    135 H135       33.4848   28.2585    4.5684 H         1 UNK         0.0616 
    136 H136       34.5773   26.7556    1.3422 H         1 UNK         0.0634 
    137 H137       33.2987   27.1834    0.2378 H         1 UNK         0.0634 
@<TRIPOS>BOND
     1    1    2 1    
     2    1   72 1    
     3    1   73 1    
     4    1   74 1    
     5    2    3 2    
     6    2    4 am   BACKBONE|DICT|INTERRES
     7    4    5 1    
     8    4   75 1    
     9    5    6 1    
    10    5   35 1    
    11    5   76 1    
    12    6    7 1    
    13    6   77 1    
    14    6   78 1    
    15    7    8 1    
    16    8    9 1    
    17    8   79 1    
    18    8   80 1    
    19    9   10 ar   
    20    9   14 ar   
    21   10   11 ar   
    22   10   81 1    
    23   11   12 ar   
    24   11   71 1    
    25   12   13 ar   
    26   12   82 1    
    27   13   14 ar   
    28   13   15 1    
    29   14   83 1    
    30   15   16 1    
    31   15   84 1    
    32   15   85 1    
    33   16   17 1    
    34   17   18 1    
    35   17   86 1    
    36   17   87 1    
    37   18   19 1    
    38   18   37 1    
    39   18   88 1    
    40   19   20 am   BACKBONE|DICT|INTERRES
    41   19   89 1    
    42   20   21 2    
    43   20   22 1    
    44   22   23 1    
    45   22   24 1    
    46   22   90 1    
    47   23   91 1    
    48   23   92 1    
    49   23   93 1    
    50   24   25 am   BACKBONE|DICT|INTERRES
    51   24   94 1    
    52   25   26 2    
    53   25   27 1    
    54   27   28 1    
    55   27   29 1    
    56   27   95 1    
    57   28   96 1    
    58   28   97 1    
    59   28   98 1    
    60   29   30 am   BACKBONE|DICT|INTERRES
    61   29   99 1    
    62   30   31 2    
    63   30   32 1    
    64   32   33 1    
    65   32   34 1    
    66   32  100 1    
    67   33  101 1    
    68   33  102 1    
    69   33  103 1    
    70   34   35 am   BACKBONE|DICT|INTERRES
    71   34  104 1    
    72   35   36 2    
    73   37   38 2    
    74   37   39 am   BACKBONE|DICT|INTERRES
    75   39   40 1    
    76   39  105 1    
    77   40   41 1    
    78   40   42 1    
    79   40  106 1    
    80   41  107 1    
    81   41  108 1    
    82   41  109 1    
    83   42   43 2    
    84   42   44 am   BACKBONE|DICT|INTERRES
    85   44   45 1    
    86   44  110 1    
    87   45   46 1    
    88   45   47 1    
    89   45  111 1    
    90   46  112 1    
    91   46  113 1    
    92   46  114 1    
    93   47   48 2    
    94   47   49 am   BACKBONE|DICT|INTERRES
    95   49   50 1    
    96   49  115 1    
    97   50   51 1    
    98   50   52 1    
    99   50  116 1    
   100   51  117 1    
   101   51  118 1    
   102   51  119 1    
   103   52   53 2    
   104   52   54 am   BACKBONE|DICT|INTERRES
   105   54   55 1    
   106   54  120 1    
   107   55   56 1    
   108   55   57 1    
   109   55  121 1    
   110   56  122 1    
   111   56  123 1    
   112   56  124 1    
   113   57   58 2    
   114   57   59 am   BACKBONE|DICT|INTERRES
   115   59   60 1    
   116   59  125 1    
   117   60   61 1    
   118   60   62 1    
   119   60  126 1    
   120   61  127 1    
   121   61  128 1    
   122   61  129 1    
   123   62   63 2    
   124   62   64 am   BACKBONE|DICT|INTERRES
   125   64   65 1    
   126   64  130 1    
   127   65   66 1    
   128   65   69 1    
   129   65  131 1    
   130   66   67 am   BACKBONE|DICT|INTERRES
   131   66   68 2    
   132   67  132 1    
   133   67  133 1    
   134   69   70 1    
   135   69  134 1    
   136   69  135 1    
   137   70   71 1    
   138   71  136 1    
   139   71  137 1    
@<TRIPOS>SUBSTRUCTURE
     1 UNK         1 GROUP             0       ****    0 ROOT    
