@<TRIPOS>MOLECULE
3R136
137   139    1
SMALL
USER_CHARGES


@<TRIPOS>ATOM
      1 CA         30.6799   21.9701    3.7083 C.3       0 UNK        -0.1979 
      2 C          30.3197   21.6824    2.2600 C.2       0 UNK         0.4864 
      3 O          30.0954   20.5244    1.9022 O.2       0 UNK        -0.5359 
      4 N          30.2696   22.7274    1.4241 N.am      1 UNK        -0.4318 
      5 CA         29.8509   22.6456    0.0222 C.3       1 UNK         0.0824 
      6 C6         30.4515   23.8002   -0.8245 C.3       12 UNK        -0.0944 
      7 S7         29.7551   25.4590   -0.5030 S.3       12 UNK        -0.2672 
      8 C8         31.1366   26.3134    0.3178 C.3       12 UNK         0.0333 
      9 C9         31.3177   25.8873    1.7673 C.ar      12 UNK        -0.0807 
     10 C10        32.5570   25.4305    2.2171 C.ar      12 UNK        -0.0894 
     11 C11        32.7435   25.0949    3.5600 C.ar      12 UNK        -0.0804 
     12 C12        31.6783   25.2256    4.4570 C.ar      12 UNK        -0.0824 
     13 C13        30.4209   25.6606    4.0212 C.ar      12 UNK        -0.0762 
     14 C14        30.2546   25.9836    2.6688 C.ar      12 UNK        -0.0782 
     15 C15        29.2828   25.7388    5.0446 C.3       12 UNK         0.0230 
     16 S16        27.6340   26.2176    4.4033 S.3       12 UNK        -0.2608 
     17 C17        27.7435   28.0407    4.3387 C.3       12 UNK        -0.0989 
     18 CA         27.5456   28.6271    2.9122 C.3       5 UNK         0.0716 
     19 N          26.2905   28.2251    2.2628 N.am      5 UNK        -0.4135 
     20 C          25.0429   28.4846    2.6792 C.2       4 UNK         0.5031 
     21 O          24.7860   29.1404    3.6897 O.2       4 UNK        -0.5229 
     22 CA         23.8756   27.9562    1.8139 C.3       4 UNK         0.0329 
     23 CB         22.8801   29.0846    1.4872 C.3       4 UNK        -0.2001 
     24 N          24.2868   27.3198    0.5545 N.am      4 UNK        -0.4303 
     25 C          24.8151   26.0944    0.4383 C.2       3 UNK         0.5044 
     26 O          25.0187   25.3455    1.3959 O.2       3 UNK        -0.5152 
     27 CA         25.2117   25.6584   -0.9799 C.3       3 UNK         0.0319 
     28 CB         26.2498   26.6172   -1.6001 C.3       3 UNK        -0.2001 
     29 N          25.7539   24.3030   -0.9292 N.am      3 UNK        -0.4354 
     30 C          25.8034   23.4334   -1.9427 C.2       2 UNK         0.4964 
     31 O          25.4107   23.6923   -3.0821 O.2       2 UNK        -0.5047 
     32 CA         26.4123   22.0510   -1.6297 C.3       2 UNK         0.0288 
     33 CB         26.2520   21.0540   -2.7937 C.3       2 UNK        -0.2113 
     34 N          27.8343   22.1549   -1.2903 N.am      2 UNK        -0.4145 
     35 C          28.3128   22.5385   -0.0989 C.2       1 UNK         0.5006 
     36 O          27.5872   22.8213    0.8599 O.2       1 UNK        -0.5103 
     37 C          27.8097   30.1477    2.8388 C.2       5 UNK         0.5055 
     38 O          28.5579   30.6814    3.6582 O.2       5 UNK        -0.5220 
     39 N          27.2426   30.8167    1.8233 N.am      6 UNK        -0.4450 
     40 CA         27.6297   32.1740    1.4262 C.3       6 UNK         0.0367 
     41 CB         26.5391   32.7781    0.5270 C.3       6 UNK        -0.1929 
     42 C          28.9936   32.1790    0.7097 C.2       6 UNK         0.5070 
     43 O          29.7584   33.1336    0.8522 O.2       6 UNK        -0.5237 
     44 N          29.2754   31.0990   -0.0327 N.am      7 UNK        -0.4739 
     45 CA         30.5647   30.8186   -0.6601 C.3       7 UNK         0.0276 
     46 CB         30.3643   29.7395   -1.7376 C.3       7 UNK        -0.1927 
     47 C          31.6057   30.3622    0.3763 C.2       7 UNK         0.5013 
     48 O          31.2408   29.8409    1.4347 O.2       7 UNK        -0.5193 
     49 N          32.8889   30.5665    0.0412 N.am      8 UNK        -0.4253 
     50 CA         34.0859   30.1738    0.8048 C.3       8 UNK         0.0242 
     51 CB         34.2103   28.6342    0.8394 C.3       8 UNK        -0.2000 
     52 C          34.1757   30.7748    2.2239 C.2       8 UNK         0.4948 
     53 O          34.9332   30.2582    3.0466 O.2       8 UNK        -0.5275 
     54 N          33.3726   31.8140    2.5087 N.am      9 UNK        -0.4246 
     55 CA         33.1350   32.4172    3.8277 C.3       9 UNK         0.0261 
     56 CB         34.3610   33.2451    4.2677 C.3       9 UNK        -0.1959 
     57 C          32.7031   31.3835    4.8917 C.2       9 UNK         0.5033 
     58 O          33.0984   31.5025    6.0538 O.2       9 UNK        -0.5390 
     59 N          31.9603   30.3488    4.4602 N.am      10 UNK        -0.4215 
     60 CA         31.5645   29.1625    5.2324 C.3       10 UNK         0.0240 
     61 CB         30.5775   29.5556    6.3550 C.3       10 UNK        -0.1982 
     62 C          32.7529   28.3441    5.7852 C.2       10 UNK         0.4970 
     63 O          32.5693   27.6083    6.7567 O.2       10 UNK        -0.4916 
     64 N          33.9464   28.5072    5.1936 N.am      11 UNK        -0.4279 
     65 CA         35.2369   28.0230    5.7073 C.3       11 UNK         0.1003 
     66 C          35.6580   28.6603    7.0697 C.2       11 UNK         0.5709 
     67 N          35.1116   29.8050    7.4677 N.am      11 UNK        -0.7358 
     68 O          36.5212   28.1332    7.7683 O.2       11 UNK        -0.4999 
     69 C69        35.3676   26.4723    5.6783 C.3       12 UNK        -0.0954 
     70 S70        35.3951   25.8148    3.9773 S.3       12 UNK        -0.2268 
     71 C71        34.0875   24.5494    4.0185 C.3       12 UNK         0.0203 
     72 H72        31.7193   22.2869    3.7864 H         1 UNK         0.0888 
     73 H73        30.0412   22.7542    4.1126 H         1 UNK         0.0888 
     74 H74        30.5489   21.0807    4.3241 H         1 UNK         0.0888 
     75 H75        30.4311   23.6622    1.7752 H         1 UNK         0.3017 
     76 H76        30.2574   21.7158   -0.3826 H         1 UNK         0.0873 
     77 H77        30.3064   23.5912   -1.8856 H         1 UNK         0.0745 
     78 H78        31.5338   23.8283   -0.6883 H         1 UNK         0.0745 
     79 H79        32.0510   26.1684   -0.2594 H         1 UNK         0.0705 
     80 H80        30.9360   27.3837    0.3052 H         1 UNK         0.0705 
     81 H81        33.3845   25.3426    1.5262 H         1 UNK         0.1334 
     82 H82        31.8235   24.9692    5.4980 H         1 UNK         0.1417 
     83 H83        29.2954   26.2994    2.2935 H         1 UNK         0.1562 
     84 H84        29.5678   26.4163    5.8505 H         1 UNK         0.0748 
     85 H85        29.1762   24.7554    5.5043 H         1 UNK         0.0748 
     86 H86        28.7145   28.3357    4.7301 H         1 UNK         0.0940 
     87 H87        27.0081   28.4555    5.0297 H         1 UNK         0.0940 
     88 H88        28.3312   28.2153    2.2814 H         1 UNK         0.0703 
     89 H89        26.3893   27.6456    1.4431 H         1 UNK         0.3081 
     90 H90        23.3530   27.2106    2.4170 H         1 UNK         0.0719 
     91 H91        23.3465   29.8785    0.9025 H         1 UNK         0.0809 
     92 H92        22.0249   28.7096    0.9245 H         1 UNK         0.0809 
     93 H93        22.4865   29.5395    2.3973 H         1 UNK         0.0809 
     94 H94        24.1523   27.8666   -0.2844 H         1 UNK         0.2990 
     95 H95        24.3069   25.6543   -1.5914 H         1 UNK         0.0690 
     96 H96        26.5862   26.2659   -2.5757 H         1 UNK         0.0788 
     97 H97        27.1297   26.7209   -0.9654 H         1 UNK         0.0788 
     98 H98        25.8352   27.6142   -1.7506 H         1 UNK         0.0788 
     99 H99        26.0887   24.0119   -0.0135 H         1 UNK         0.2993 
    100 H100       25.8704   21.6459   -0.7719 H         1 UNK         0.0949 
    101 H101       25.2015   20.9329   -3.0619 H         1 UNK         0.0767 
    102 H102       26.7815   21.3854   -3.6880 H         1 UNK         0.0767 
    103 H103       26.6312   20.0676   -2.5255 H         1 UNK         0.0767 
    104 H104       28.4851   21.9748   -2.0412 H         1 UNK         0.3013 
    105 H105       26.6055   30.3235    1.2161 H         1 UNK         0.3121 
    106 H106       27.7177   32.7928    2.3221 H         1 UNK         0.0774 
    107 H107       25.5792   32.8207    1.0420 H         1 UNK         0.0815 
    108 H108       26.7960   33.7984    0.2384 H         1 UNK         0.0815 
    109 H109       26.4039   32.2049   -0.3910 H         1 UNK         0.0815 
    110 H110       28.5969   30.3545   -0.0617 H         1 UNK         0.2987 
    111 H111       30.9245   31.7329   -1.1378 H         1 UNK         0.0949 
    112 H112       31.3078   29.4819   -2.2209 H         1 UNK         0.0806 
    113 H113       29.9501   28.8204   -1.3219 H         1 UNK         0.0806 
    114 H114       29.6873   30.0842   -2.5196 H         1 UNK         0.0806 
    115 H115       33.0785   31.0187   -0.8433 H         1 UNK         0.3010 
    116 H116       34.9437   30.5663    0.2567 H         1 UNK         0.0829 
    117 H117       34.1433   28.2047   -0.1600 H         1 UNK         0.0813 
    118 H118       35.1679   28.3239    1.2597 H         1 UNK         0.0813 
    119 H119       33.4299   28.1824    1.4527 H         1 UNK         0.0813 
    120 H120       32.7792   32.1534    1.7643 H         1 UNK         0.3038 
    121 H121       32.2931   33.1010    3.7093 H         1 UNK         0.0769 
    122 H122       35.2284   32.6116    4.4569 H         1 UNK         0.0811 
    123 H123       34.1536   33.7951    5.1864 H         1 UNK         0.0811 
    124 H124       34.6390   33.9770    3.5095 H         1 UNK         0.0811 
    125 H125       31.6969   30.3274    3.4787 H         1 UNK         0.3204 
    126 H126       31.0472   28.5096    4.5290 H         1 UNK         0.0748 
    127 H127       30.1289   28.6734    6.8124 H         1 UNK         0.0771 
    128 H128       31.0730   30.1131    7.1504 H         1 UNK         0.0771 
    129 H129       29.7642   30.1738    5.9768 H         1 UNK         0.0771 
    130 H130       34.0261   29.1427    4.4063 H         1 UNK         0.2980 
    131 H131       35.9771   28.4146    5.0089 H         1 UNK         0.0545 
    132 H132       34.4093   30.2783    6.9074 H         1 UNK         0.3459 
    133 H133       35.4044   30.2076    8.3431 H         1 UNK         0.3459 
    134 H134       36.3030   26.1528    6.1400 H         1 UNK         0.0616 
    135 H135       34.5734   26.0028    6.2589 H         1 UNK         0.0616 
    136 H136       34.3777   23.7362    3.3517 H         1 UNK         0.0634 
    137 H137       34.0188   24.1085    5.0140 H         1 UNK         0.0634 
@<TRIPOS>BOND
     1    1    2 1    
     2    1   72 1    
     3    1   73 1    
     4    1   74 1    
     5    2    3 2    
     6    2    4 am   BACKBONE|DICT|INTERRES
     7    4    5 1    
     8    4   75 1    
     9    5    6 1    
    10    5   35 1    
    11    5   76 1    
    12    6    7 1    
    13    6   77 1    
    14    6   78 1    
    15    7    8 1    
    16    8    9 1    
    17    8   79 1    
    18    8   80 1    
    19    9   10 ar   
    20    9   14 ar   
    21   10   11 ar   
    22   10   81 1    
    23   11   12 ar   
    24   11   71 1    
    25   12   13 ar   
    26   12   82 1    
    27   13   14 ar   
    28   13   15 1    
    29   14   83 1    
    30   15   16 1    
    31   15   84 1    
    32   15   85 1    
    33   16   17 1    
    34   17   18 1    
    35   17   86 1    
    36   17   87 1    
    37   18   19 1    
    38   18   37 1    
    39   18   88 1    
    40   19   20 am   BACKBONE|DICT|INTERRES
    41   19   89 1    
    42   20   21 2    
    43   20   22 1    
    44   22   23 1    
    45   22   24 1    
    46   22   90 1    
    47   23   91 1    
    48   23   92 1    
    49   23   93 1    
    50   24   25 am   BACKBONE|DICT|INTERRES
    51   24   94 1    
    52   25   26 2    
    53   25   27 1    
    54   27   28 1    
    55   27   29 1    
    56   27   95 1    
    57   28   96 1    
    58   28   97 1    
    59   28   98 1    
    60   29   30 am   BACKBONE|DICT|INTERRES
    61   29   99 1    
    62   30   31 2    
    63   30   32 1    
    64   32   33 1    
    65   32   34 1    
    66   32  100 1    
    67   33  101 1    
    68   33  102 1    
    69   33  103 1    
    70   34   35 am   BACKBONE|DICT|INTERRES
    71   34  104 1    
    72   35   36 2    
    73   37   38 2    
    74   37   39 am   BACKBONE|DICT|INTERRES
    75   39   40 1    
    76   39  105 1    
    77   40   41 1    
    78   40   42 1    
    79   40  106 1    
    80   41  107 1    
    81   41  108 1    
    82   41  109 1    
    83   42   43 2    
    84   42   44 am   BACKBONE|DICT|INTERRES
    85   44   45 1    
    86   44  110 1    
    87   45   46 1    
    88   45   47 1    
    89   45  111 1    
    90   46  112 1    
    91   46  113 1    
    92   46  114 1    
    93   47   48 2    
    94   47   49 am   BACKBONE|DICT|INTERRES
    95   49   50 1    
    96   49  115 1    
    97   50   51 1    
    98   50   52 1    
    99   50  116 1    
   100   51  117 1    
   101   51  118 1    
   102   51  119 1    
   103   52   53 2    
   104   52   54 am   BACKBONE|DICT|INTERRES
   105   54   55 1    
   106   54  120 1    
   107   55   56 1    
   108   55   57 1    
   109   55  121 1    
   110   56  122 1    
   111   56  123 1    
   112   56  124 1    
   113   57   58 2    
   114   57   59 am   BACKBONE|DICT|INTERRES
   115   59   60 1    
   116   59  125 1    
   117   60   61 1    
   118   60   62 1    
   119   60  126 1    
   120   61  127 1    
   121   61  128 1    
   122   61  129 1    
   123   62   63 2    
   124   62   64 am   BACKBONE|DICT|INTERRES
   125   64   65 1    
   126   64  130 1    
   127   65   66 1    
   128   65   69 1    
   129   65  131 1    
   130   66   67 am   BACKBONE|DICT|INTERRES
   131   66   68 2    
   132   67  132 1    
   133   67  133 1    
   134   69   70 1    
   135   69  134 1    
   136   69  135 1    
   137   70   71 1    
   138   71  136 1    
   139   71  137 1    
@<TRIPOS>SUBSTRUCTURE
     1 UNK         1 GROUP             0       ****    0 ROOT    
