@<TRIPOS>MOLECULE
3R136
137   139    1
SMALL
USER_CHARGES


@<TRIPOS>ATOM
      1 CA         28.6400   20.2350   -2.6168 C.3       0 UNK        -0.1979 
      2 C          28.8449   21.4076   -1.6695 C.2       0 UNK         0.4864 
      3 O          28.8577   22.5554   -2.1171 O.2       0 UNK        -0.5359 
      4 N          28.9972   21.1244   -0.3666 N.am      1 UNK        -0.4318 
      5 CA         29.2247   22.1004    0.7084 C.3       1 UNK         0.0824 
      6 C6         29.3710   21.4143    2.0912 C.3       12 UNK        -0.0944 
      7 S7         31.0308   20.6916    2.3044 S.3       12 UNK        -0.2672 
      8 C8         31.5575   21.3923    3.9085 C.3       12 UNK         0.0333 
      9 C9         31.5541   22.9180    3.9337 C.ar      12 UNK        -0.0807 
     10 C10        32.3665   23.6417    3.0548 C.ar      12 UNK        -0.0894 
     11 C11        32.3578   25.0393    3.0694 C.ar      12 UNK        -0.0804 
     12 C12        31.5356   25.7147    3.9744 C.ar      12 UNK        -0.0824 
     13 C13        30.7307   25.0052    4.8703 C.ar      12 UNK        -0.0762 
     14 C14        30.7454   23.6066    4.8465 C.ar      12 UNK        -0.0782 
     15 C15        29.8681   25.7600    5.8755 C.3       12 UNK         0.0230 
     16 S16        28.0707   25.5184    5.6504 S.3       12 UNK        -0.2608 
     17 C17        27.8226   25.6704    3.8488 C.3       12 UNK        -0.0989 
     18 CA         28.1596   27.0609    3.2503 C.3       5 UNK         0.0716 
     19 N          28.5994   26.9318    1.8546 N.am      5 UNK        -0.4135 
     20 C          29.1631   27.8861    1.1009 C.2       4 UNK         0.5031 
     21 O          29.3798   29.0271    1.5028 O.2       4 UNK        -0.5229 
     22 CA         29.4830   27.5287   -0.3590 C.3       4 UNK         0.0329 
     23 CB         30.8458   26.8320   -0.4733 C.3       4 UNK        -0.2001 
     24 N          28.4529   26.6665   -0.9397 N.am      4 UNK        -0.4303 
     25 C          27.3855   27.1093   -1.6172 C.2       3 UNK         0.5044 
     26 O          27.1582   28.2986   -1.8399 O.2       3 UNK        -0.5152 
     27 CA         26.3973   26.0473   -2.1325 C.3       3 UNK         0.0319 
     28 CB         26.8237   25.5437   -3.5206 C.3       3 UNK        -0.2001 
     29 N          26.2524   24.9044   -1.2284 N.am      3 UNK        -0.4354 
     30 C          25.6895   24.9676   -0.0133 C.2       2 UNK         0.4964 
     31 O          25.2078   25.9940    0.4667 O.2       2 UNK        -0.5047 
     32 CA         25.6919   23.6775    0.8275 C.3       2 UNK         0.0288 
     33 CB         24.4174   22.8620    0.5569 C.3       2 UNK        -0.2113 
     34 N          26.8661   22.8117    0.6514 N.am      2 UNK        -0.4145 
     35 C          28.1461   23.1950    0.7758 C.2       1 UNK         0.5006 
     36 O          28.5000   24.3629    0.9269 O.2       1 UNK        -0.5103 
     37 C          27.0162   28.0845    3.4468 C.2       5 UNK         0.5055 
     38 O          26.7895   28.5327    4.5702 O.2       5 UNK        -0.5220 
     39 N          26.3582   28.4996    2.3538 N.am      6 UNK        -0.4450 
     40 CA         25.4725   29.6663    2.2965 C.3       6 UNK         0.0367 
     41 CB         24.8426   29.7433    0.8967 C.3       6 UNK        -0.1929 
     42 C          26.1785   30.9962    2.6448 C.2       6 UNK         0.5070 
     43 O          25.5087   31.9316    3.0831 O.2       6 UNK        -0.5237 
     44 N          27.5061   31.0538    2.4710 N.am      7 UNK        -0.4739 
     45 CA         28.3790   32.1531    2.8731 C.3       7 UNK         0.0276 
     46 CB         28.8148   32.9374    1.6213 C.3       7 UNK        -0.1927 
     47 C          29.5634   31.5623    3.6561 C.2       7 UNK         0.5013 
     48 O          30.7148   31.7212    3.2514 O.2       7 UNK        -0.5193 
     49 N          29.2486   30.8729    4.7642 N.am      8 UNK        -0.4253 
     50 CA         30.1502   30.0711    5.6083 C.3       8 UNK         0.0242 
     51 CB         29.3351   29.4751    6.7709 C.3       8 UNK        -0.2000 
     52 C          31.4116   30.7631    6.1676 C.2       8 UNK         0.4948 
     53 O          32.2714   30.0658    6.7076 O.2       8 UNK        -0.5275 
     54 N          31.5120   32.0946    6.0511 N.am      9 UNK        -0.4246 
     55 CA         32.6579   32.9049    6.4734 C.3       9 UNK         0.0261 
     56 CB         32.3389   34.3913    6.2442 C.3       9 UNK        -0.1959 
     57 C          33.9868   32.5280    5.7892 C.2       9 UNK         0.5033 
     58 O          35.0348   32.6482    6.4265 O.2       9 UNK        -0.5390 
     59 N          33.9309   32.0690    4.5316 N.am      10 UNK        -0.4215 
     60 CA         35.0757   31.5622    3.7773 C.3       10 UNK         0.0240 
     61 CB         35.9462   32.7252    3.2616 C.3       10 UNK        -0.1982 
     62 C          34.5669   30.7107    2.6110 C.2       10 UNK         0.4970 
     63 O          33.5836   31.0897    1.9736 O.2       10 UNK        -0.4916 
     64 N          35.2628   29.6036    2.3279 N.am      11 UNK        -0.4279 
     65 CA         34.9741   28.7150    1.1885 C.3       11 UNK         0.1003 
     66 C          35.4532   29.2589   -0.1901 C.2       11 UNK         0.5709 
     67 N          36.2399   30.3271   -0.2528 N.am      11 UNK        -0.7358 
     68 O          35.0944   28.7035   -1.2256 O.2       11 UNK        -0.4999 
     69 C69        35.4981   27.2737    1.4304 C.3       12 UNK        -0.0954 
     70 S70        34.7276   26.4654    2.8724 S.3       12 UNK        -0.2268 
     71 C71        33.2157   25.8256    2.0934 C.3       12 UNK         0.0203 
     72 H72        28.6432   19.2800   -2.0918 H         1 UNK         0.0888 
     73 H73        27.6867   20.3342   -3.1352 H         1 UNK         0.0888 
     74 H74        29.4335   20.2141   -3.3633 H         1 UNK         0.0888 
     75 H75        28.9956   20.1572   -0.0747 H         1 UNK         0.3017 
     76 H76        30.1583   22.6180    0.4757 H         1 UNK         0.0873 
     77 H77        29.1918   22.1197    2.9046 H         1 UNK         0.0745 
     78 H78        28.6235   20.6295    2.2200 H         1 UNK         0.0745 
     79 H79        32.5647   21.0382    4.1318 H         1 UNK         0.0705 
     80 H80        30.9126   20.9907    4.6917 H         1 UNK         0.0705 
     81 H81        32.9969   23.1134    2.3524 H         1 UNK         0.1334 
     82 H82        31.5335   26.7962    3.9834 H         1 UNK         0.1417 
     83 H83        30.1203   23.0581    5.5383 H         1 UNK         0.1562 
     84 H84        30.0841   26.8275    5.8369 H         1 UNK         0.0748 
     85 H85        30.1375   25.4400    6.8828 H         1 UNK         0.0748 
     86 H86        26.7979   25.3812    3.6090 H         1 UNK         0.0940 
     87 H87        28.4478   24.9004    3.3985 H         1 UNK         0.0940 
     88 H88        29.0172   27.4694    3.7859 H         1 UNK         0.0703 
     89 H89        28.4983   26.0013    1.4484 H         1 UNK         0.3081 
     90 H90        29.5395   28.4609   -0.9257 H         1 UNK         0.0719 
     91 H91        30.8912   25.9253    0.1320 H         1 UNK         0.0809 
     92 H92        31.0631   26.5550   -1.5050 H         1 UNK         0.0809 
     93 H93        31.6444   27.4993   -0.1486 H         1 UNK         0.0809 
     94 H94        28.5301   25.6740   -0.7512 H         1 UNK         0.2990 
     95 H95        25.4203   26.5260   -2.2287 H         1 UNK         0.0690 
     96 H96        27.7816   25.0223   -3.4843 H         1 UNK         0.0788 
     97 H97        26.9289   26.3728   -4.2219 H         1 UNK         0.0788 
     98 H98        26.0853   24.8592   -3.9383 H         1 UNK         0.0788 
     99 H99        26.6528   24.0268   -1.5311 H         1 UNK         0.2993 
    100 H100       25.6796   23.9849    1.8748 H         1 UNK         0.0949 
    101 H101       24.3919   22.4805   -0.4647 H         1 UNK         0.0767 
    102 H102       24.3368   22.0127    1.2357 H         1 UNK         0.0767 
    103 H103       23.5244   23.4726    0.6996 H         1 UNK         0.0767 
    104 H104       26.6814   21.8308    0.4991 H         1 UNK         0.3013 
    105 H105       26.5604   28.0437    1.4752 H         1 UNK         0.3121 
    106 H106       24.6760   29.5156    3.0280 H         1 UNK         0.0774 
    107 H107       24.1482   30.5817    0.8263 H         1 UNK         0.0815 
    108 H108       25.5983   29.8787    0.1215 H         1 UNK         0.0815 
    109 H109       24.2820   28.8377    0.6629 H         1 UNK         0.0815 
    110 H110       27.9961   30.2349    2.1163 H         1 UNK         0.2987 
    111 H111       27.8558   32.8358    3.5463 H         1 UNK         0.0949 
    112 H112       29.3558   32.3020    0.9185 H         1 UNK         0.0806 
    113 H113       27.9556   33.3587    1.0995 H         1 UNK         0.0806 
    114 H114       29.4722   33.7660    1.8878 H         1 UNK         0.0806 
    115 H115       28.2662   30.7941    4.9894 H         1 UNK         0.3010 
    116 H116       30.5082   29.2494    4.9852 H         1 UNK         0.0829 
    117 H117       29.9620   28.8713    7.4289 H         1 UNK         0.0813 
    118 H118       28.8808   30.2547    7.3834 H         1 UNK         0.0813 
    119 H119       28.5398   28.8229    6.4144 H         1 UNK         0.0813 
    120 H120       30.7676   32.5780    5.5706 H         1 UNK         0.3038 
    121 H121       32.7893   32.7452    7.5456 H         1 UNK         0.0769 
    122 H122       33.1665   35.0226    6.5711 H         1 UNK         0.0811 
    123 H123       31.4572   34.7005    6.8059 H         1 UNK         0.0811 
    124 H124       32.1607   34.6079    5.1901 H         1 UNK         0.0811 
    125 H125       33.0329   31.9797    4.0652 H         1 UNK         0.3204 
    126 H126       35.6735   30.9289    4.4368 H         1 UNK         0.0748 
    127 H127       36.7920   32.3551    2.6812 H         1 UNK         0.0771 
    128 H128       35.3763   33.3976    2.6189 H         1 UNK         0.0771 
    129 H129       36.3552   33.3152    4.0818 H         1 UNK         0.0771 
    130 H130       36.0649   29.3591    2.8897 H         1 UNK         0.2980 
    131 H131       33.8883   28.6484    1.0982 H         1 UNK         0.0545 
    132 H132       36.5406   30.7934    0.5869 H         1 UNK         0.3459 
    133 H133       36.5359   30.6679   -1.1539 H         1 UNK         0.3459 
    134 H134       35.3281   26.6426    0.5559 H         1 UNK         0.0616 
    135 H135       36.5785   27.2861    1.5840 H         1 UNK         0.0616 
    136 H136       33.4749   25.2104    1.2302 H         1 UNK         0.0634 
    137 H137       32.6407   26.6704    1.7189 H         1 UNK         0.0634 
@<TRIPOS>BOND
     1    1    2 1    
     2    1   72 1    
     3    1   73 1    
     4    1   74 1    
     5    2    3 2    
     6    2    4 am   BACKBONE|DICT|INTERRES
     7    4    5 1    
     8    4   75 1    
     9    5    6 1    
    10    5   35 1    
    11    5   76 1    
    12    6    7 1    
    13    6   77 1    
    14    6   78 1    
    15    7    8 1    
    16    8    9 1    
    17    8   79 1    
    18    8   80 1    
    19    9   10 ar   
    20    9   14 ar   
    21   10   11 ar   
    22   10   81 1    
    23   11   12 ar   
    24   11   71 1    
    25   12   13 ar   
    26   12   82 1    
    27   13   14 ar   
    28   13   15 1    
    29   14   83 1    
    30   15   16 1    
    31   15   84 1    
    32   15   85 1    
    33   16   17 1    
    34   17   18 1    
    35   17   86 1    
    36   17   87 1    
    37   18   19 1    
    38   18   37 1    
    39   18   88 1    
    40   19   20 am   BACKBONE|DICT|INTERRES
    41   19   89 1    
    42   20   21 2    
    43   20   22 1    
    44   22   23 1    
    45   22   24 1    
    46   22   90 1    
    47   23   91 1    
    48   23   92 1    
    49   23   93 1    
    50   24   25 am   BACKBONE|DICT|INTERRES
    51   24   94 1    
    52   25   26 2    
    53   25   27 1    
    54   27   28 1    
    55   27   29 1    
    56   27   95 1    
    57   28   96 1    
    58   28   97 1    
    59   28   98 1    
    60   29   30 am   BACKBONE|DICT|INTERRES
    61   29   99 1    
    62   30   31 2    
    63   30   32 1    
    64   32   33 1    
    65   32   34 1    
    66   32  100 1    
    67   33  101 1    
    68   33  102 1    
    69   33  103 1    
    70   34   35 am   BACKBONE|DICT|INTERRES
    71   34  104 1    
    72   35   36 2    
    73   37   38 2    
    74   37   39 am   BACKBONE|DICT|INTERRES
    75   39   40 1    
    76   39  105 1    
    77   40   41 1    
    78   40   42 1    
    79   40  106 1    
    80   41  107 1    
    81   41  108 1    
    82   41  109 1    
    83   42   43 2    
    84   42   44 am   BACKBONE|DICT|INTERRES
    85   44   45 1    
    86   44  110 1    
    87   45   46 1    
    88   45   47 1    
    89   45  111 1    
    90   46  112 1    
    91   46  113 1    
    92   46  114 1    
    93   47   48 2    
    94   47   49 am   BACKBONE|DICT|INTERRES
    95   49   50 1    
    96   49  115 1    
    97   50   51 1    
    98   50   52 1    
    99   50  116 1    
   100   51  117 1    
   101   51  118 1    
   102   51  119 1    
   103   52   53 2    
   104   52   54 am   BACKBONE|DICT|INTERRES
   105   54   55 1    
   106   54  120 1    
   107   55   56 1    
   108   55   57 1    
   109   55  121 1    
   110   56  122 1    
   111   56  123 1    
   112   56  124 1    
   113   57   58 2    
   114   57   59 am   BACKBONE|DICT|INTERRES
   115   59   60 1    
   116   59  125 1    
   117   60   61 1    
   118   60   62 1    
   119   60  126 1    
   120   61  127 1    
   121   61  128 1    
   122   61  129 1    
   123   62   63 2    
   124   62   64 am   BACKBONE|DICT|INTERRES
   125   64   65 1    
   126   64  130 1    
   127   65   66 1    
   128   65   69 1    
   129   65  131 1    
   130   66   67 am   BACKBONE|DICT|INTERRES
   131   66   68 2    
   132   67  132 1    
   133   67  133 1    
   134   69   70 1    
   135   69  134 1    
   136   69  135 1    
   137   70   71 1    
   138   71  136 1    
   139   71  137 1    
@<TRIPOS>SUBSTRUCTURE
     1 UNK         1 GROUP             0       ****    0 ROOT    
