@<TRIPOS>MOLECULE
3R136
137   139    1
SMALL
USER_CHARGES


@<TRIPOS>ATOM
      1 CA         29.1700   22.1366   -4.5853 C.3       0 UNK        -0.1979 
      2 C          29.4337   22.0181   -3.0914 C.2       0 UNK         0.4864 
      3 O          29.2940   20.9288   -2.5343 O.2       0 UNK        -0.5359 
      4 N          29.8093   23.1326   -2.4449 N.am      1 UNK        -0.4318 
      5 CA         30.1151   23.2443   -1.0098 C.3       1 UNK         0.0824 
      6 C6         31.3683   22.4149   -0.6046 C.3       12 UNK        -0.0944 
      7 S7         32.3021   23.1852    0.7594 S.3       12 UNK        -0.2672 
      8 C8         32.1110   21.9422    2.0740 C.3       12 UNK         0.0333 
      9 C9         32.1736   22.6013    3.4398 C.ar      12 UNK        -0.0807 
     10 C10        33.3861   22.6888    4.1298 C.ar      12 UNK        -0.0894 
     11 C11        33.4455   23.3242    5.3738 C.ar      12 UNK        -0.0804 
     12 C12        32.2785   23.8505    5.9350 C.ar      12 UNK        -0.0824 
     13 C13        31.0668   23.7868    5.2424 C.ar      12 UNK        -0.0762 
     14 C14        31.0162   23.1515    3.9992 C.ar      12 UNK        -0.0782 
     15 C15        29.8294   24.4427    5.8295 C.3       12 UNK         0.0230 
     16 S16        29.8381   26.2331    5.5066 S.3       12 UNK        -0.2608 
     17 C17        28.9457   26.3240    3.9137 C.3       12 UNK        -0.0989 
     18 CA         29.0678   27.7037    3.2189 C.3       5 UNK         0.0716 
     19 N          28.4081   27.7088    1.9101 N.am      5 UNK        -0.4135 
     20 C          28.4150   28.7412    1.0496 C.2       4 UNK         0.5031 
     21 O          29.0437   29.7843    1.2383 O.2       4 UNK        -0.5229 
     22 CA         27.5781   28.6141   -0.2382 C.3       4 UNK         0.0329 
     23 CB         28.4783   28.2177   -1.4193 C.3       4 UNK        -0.2001 
     24 N          26.4741   27.6578   -0.1344 N.am      4 UNK        -0.4303 
     25 C          25.4112   27.7829    0.6736 C.2       3 UNK         0.5044 
     26 O          25.1744   28.7916    1.3361 O.2       3 UNK        -0.5152 
     27 CA         24.4549   26.5781    0.7846 C.3       3 UNK         0.0319 
     28 CB         23.1285   26.8796    0.0674 C.3       3 UNK        -0.2001 
     29 N          24.9827   25.3001    0.2869 N.am      3 UNK        -0.4354 
     30 C          26.0831   24.6662    0.7197 C.2       2 UNK         0.4964 
     31 O          26.8457   25.1318    1.5689 O.2       2 UNK        -0.5047 
     32 CA         26.4088   23.3073    0.0746 C.3       2 UNK         0.0288 
     33 CB         25.3447   22.8058   -0.9256 C.3       2 UNK        -0.2113 
     34 N          27.6942   23.3990   -0.6156 N.am      2 UNK        -0.4145 
     35 C          28.8724   23.0040   -0.1130 C.2       1 UNK         0.5006 
     36 O          28.9898   22.4740    0.9931 O.2       1 UNK        -0.5103 
     37 C          28.5230   28.8518    4.0961 C.2       5 UNK         0.5055 
     38 O          27.3167   28.9151    4.3416 O.2       5 UNK        -0.5220 
     39 N          29.4261   29.7528    4.5016 N.am      6 UNK        -0.4450 
     40 CA         29.2316   30.9835    5.2788 C.3       6 UNK         0.0367 
     41 CB         28.5288   30.7144    6.6235 C.3       6 UNK        -0.1929 
     42 C          28.5481   32.1218    4.4994 C.2       6 UNK         0.5070 
     43 O          28.8536   33.2840    4.7660 O.2       6 UNK        -0.5237 
     44 N          27.6622   31.7925    3.5500 N.am      7 UNK        -0.4739 
     45 CA         26.9855   32.7457    2.6683 C.3       7 UNK         0.0276 
     46 CB         25.8337   32.0442    1.9334 C.3       7 UNK        -0.1927 
     47 C          27.9484   33.4023    1.6667 C.2       7 UNK         0.5013 
     48 O          27.9163   34.6241    1.5135 O.2       7 UNK        -0.5193 
     49 N          28.7899   32.5854    1.0187 N.am      8 UNK        -0.4253 
     50 CA         29.8636   33.0401    0.1370 C.3       8 UNK         0.0242 
     51 CB         30.0363   32.0572   -1.0341 C.3       8 UNK        -0.2000 
     52 C          31.1660   33.1861    0.9333 C.2       8 UNK         0.4948 
     53 O          31.7986   34.2409    0.8684 O.2       8 UNK        -0.5275 
     54 N          31.5294   32.1391    1.6848 N.am      9 UNK        -0.4246 
     55 CA         32.7057   32.0786    2.5479 C.3       9 UNK         0.0261 
     56 CB         33.9879   31.9387    1.7038 C.3       9 UNK        -0.1959 
     57 C          32.5600   30.8773    3.4833 C.2       9 UNK         0.5033 
     58 O          31.8673   29.9143    3.1380 O.2       9 UNK        -0.5390 
     59 N          33.2340   30.9228    4.6387 N.am      10 UNK        -0.4215 
     60 CA         33.3621   29.7829    5.5502 C.3       10 UNK         0.0240 
     61 CB         34.0240   30.2375    6.8613 C.3       10 UNK        -0.1982 
     62 C          34.1731   28.6682    4.8691 C.2       10 UNK         0.4970 
     63 O          35.3190   28.9114    4.4845 O.2       10 UNK        -0.4916 
     64 N          33.5383   27.5052    4.6841 N.am      11 UNK        -0.4279 
     65 CA         34.0323   26.3827    3.8678 C.3       11 UNK         0.1003 
     66 C          34.1005   26.6888    2.3387 C.2       11 UNK         0.5709 
     67 N          33.3990   27.6970    1.8294 N.am      11 UNK        -0.7358 
     68 O          34.7844   25.9935    1.5913 O.2       11 UNK        -0.4999 
     69 C69        35.3409   25.7291    4.4151 C.3       12 UNK        -0.0954 
     70 S70        35.2524   25.2625    6.1801 S.3       12 UNK        -0.2268 
     71 C71        34.7782   23.5041    6.0846 C.3       12 UNK         0.0203 
     72 H72        28.1405   21.8570   -4.8077 H         1 UNK         0.0888 
     73 H73        29.3324   23.1505   -4.9505 H         1 UNK         0.0888 
     74 H74        29.8312   21.4684   -5.1365 H         1 UNK         0.0888 
     75 H75        29.9126   23.9887   -2.9731 H         1 UNK         0.3017 
     76 H76        30.3601   24.2986   -0.8694 H         1 UNK         0.0873 
     77 H77        31.1053   21.3815   -0.3717 H         1 UNK         0.0745 
     78 H78        32.0603   22.3537   -1.4460 H         1 UNK         0.0745 
     79 H79        31.1620   21.4153    1.9720 H         1 UNK         0.0705 
     80 H80        32.8921   21.1872    1.9724 H         1 UNK         0.0705 
     81 H81        34.2865   22.2890    3.6836 H         1 UNK         0.1334 
     82 H82        32.3258   24.3588    6.8887 H         1 UNK         0.1417 
     83 H83        30.0836   23.1041    3.4521 H         1 UNK         0.1562 
     84 H84        29.8067   24.2788    6.9079 H         1 UNK         0.0748 
     85 H85        28.9186   23.9911    5.4328 H         1 UNK         0.0748 
     86 H86        27.8966   26.0747    4.0868 H         1 UNK         0.0940 
     87 H87        29.3362   25.5481    3.2530 H         1 UNK         0.0940 
     88 H88        30.1284   27.8811    3.0293 H         1 UNK         0.0703 
     89 H89        27.8369   26.8975    1.6975 H         1 UNK         0.3081 
     90 H90        27.1513   29.5972   -0.4470 H         1 UNK         0.0719 
     91 H91        28.9231   27.2321   -1.2762 H         1 UNK         0.0809 
     92 H92        29.2966   28.9285   -1.5421 H         1 UNK         0.0809 
     93 H93        27.9217   28.2046   -2.3565 H         1 UNK         0.0809 
     94 H94        26.5688   26.7966   -0.6509 H         1 UNK         0.2990 
     95 H95        24.2443   26.4451    1.8478 H         1 UNK         0.0690 
     96 H96        22.3977   26.0873    0.2315 H         1 UNK         0.0788 
     97 H97        23.2686   26.9922   -1.0085 H         1 UNK         0.0788 
     98 H98        22.6847   27.8056    0.4365 H         1 UNK         0.0788 
     99 H99        24.4316   24.8418   -0.4248 H         1 UNK         0.2993 
    100 H100       26.4680   22.5810    0.8883 H         1 UNK         0.0949 
    101 H101       25.6147   21.8232   -1.3141 H         1 UNK         0.0767 
    102 H102       24.3696   22.6964   -0.4483 H         1 UNK         0.0767 
    103 H103       25.2311   23.4726   -1.7816 H         1 UNK         0.0767 
    104 H104       27.6882   23.8290   -1.5287 H         1 UNK         0.3013 
    105 H105       30.3619   29.6558    4.1082 H         1 UNK         0.3121 
    106 H106       30.2378   31.3365    5.5098 H         1 UNK         0.0774 
    107 H107       28.5241   31.6121    7.2429 H         1 UNK         0.0815 
    108 H108       27.4900   30.4119    6.4898 H         1 UNK         0.0815 
    109 H109       29.0374   29.9327    7.1876 H         1 UNK         0.0815 
    110 H110       27.4427   30.8099    3.4321 H         1 UNK         0.2987 
    111 H111       26.5608   33.5364    3.2910 H         1 UNK         0.0949 
    112 H112       26.1976   31.2542    1.2763 H         1 UNK         0.0806 
    113 H113       25.1268   31.5969    2.6325 H         1 UNK         0.0806 
    114 H114       25.2775   32.7504    1.3156 H         1 UNK         0.0806 
    115 H115       28.7605   31.5863    1.2150 H         1 UNK         0.3010 
    116 H116       29.6098   34.0160   -0.2831 H         1 UNK         0.0829 
    117 H117       29.1075   31.9394   -1.5925 H         1 UNK         0.0813 
    118 H118       30.7922   32.4176   -1.7329 H         1 UNK         0.0813 
    119 H119       30.3516   31.0690   -0.6988 H         1 UNK         0.0813 
    120 H120       30.9587   31.2998    1.6977 H         1 UNK         0.3038 
    121 H121       32.7512   32.9895    3.1485 H         1 UNK         0.0769 
    122 H122       34.1421   32.8034    1.0586 H         1 UNK         0.0811 
    123 H123       33.9544   31.0510    1.0705 H         1 UNK         0.0811 
    124 H124       34.8708   31.8519    2.3385 H         1 UNK         0.0811 
    125 H125       33.8114   31.7273    4.8376 H         1 UNK         0.3204 
    126 H126       32.3608   29.4140    5.7843 H         1 UNK         0.0748 
    127 H127       33.4326   31.0066    7.3586 H         1 UNK         0.0771 
    128 H128       34.1204   29.4026    7.5568 H         1 UNK         0.0771 
    129 H129       35.0246   30.6383    6.6934 H         1 UNK         0.0771 
    130 H130       32.5952   27.4012    5.0286 H         1 UNK         0.2980 
    131 H131       33.2454   25.6338    3.9335 H         1 UNK         0.0545 
    132 H132       33.4505   27.8691    0.8390 H         1 UNK         0.3459 
    133 H133       32.8385   28.3046    2.4153 H         1 UNK         0.3459 
    134 H134       35.5914   24.8375    3.8380 H         1 UNK         0.0616 
    135 H135       36.1854   26.4077    4.2900 H         1 UNK         0.0616 
    136 H136       34.7057   23.1000    7.0952 H         1 UNK         0.0634 
    137 H137       35.5702   22.9459    5.5828 H         1 UNK         0.0634 
@<TRIPOS>BOND
     1    1    2 1    
     2    1   72 1    
     3    1   73 1    
     4    1   74 1    
     5    2    3 2    
     6    2    4 am   BACKBONE|DICT|INTERRES
     7    4    5 1    
     8    4   75 1    
     9    5    6 1    
    10    5   35 1    
    11    5   76 1    
    12    6    7 1    
    13    6   77 1    
    14    6   78 1    
    15    7    8 1    
    16    8    9 1    
    17    8   79 1    
    18    8   80 1    
    19    9   10 ar   
    20    9   14 ar   
    21   10   11 ar   
    22   10   81 1    
    23   11   12 ar   
    24   11   71 1    
    25   12   13 ar   
    26   12   82 1    
    27   13   14 ar   
    28   13   15 1    
    29   14   83 1    
    30   15   16 1    
    31   15   84 1    
    32   15   85 1    
    33   16   17 1    
    34   17   18 1    
    35   17   86 1    
    36   17   87 1    
    37   18   19 1    
    38   18   37 1    
    39   18   88 1    
    40   19   20 am   BACKBONE|DICT|INTERRES
    41   19   89 1    
    42   20   21 2    
    43   20   22 1    
    44   22   23 1    
    45   22   24 1    
    46   22   90 1    
    47   23   91 1    
    48   23   92 1    
    49   23   93 1    
    50   24   25 am   BACKBONE|DICT|INTERRES
    51   24   94 1    
    52   25   26 2    
    53   25   27 1    
    54   27   28 1    
    55   27   29 1    
    56   27   95 1    
    57   28   96 1    
    58   28   97 1    
    59   28   98 1    
    60   29   30 am   BACKBONE|DICT|INTERRES
    61   29   99 1    
    62   30   31 2    
    63   30   32 1    
    64   32   33 1    
    65   32   34 1    
    66   32  100 1    
    67   33  101 1    
    68   33  102 1    
    69   33  103 1    
    70   34   35 am   BACKBONE|DICT|INTERRES
    71   34  104 1    
    72   35   36 2    
    73   37   38 2    
    74   37   39 am   BACKBONE|DICT|INTERRES
    75   39   40 1    
    76   39  105 1    
    77   40   41 1    
    78   40   42 1    
    79   40  106 1    
    80   41  107 1    
    81   41  108 1    
    82   41  109 1    
    83   42   43 2    
    84   42   44 am   BACKBONE|DICT|INTERRES
    85   44   45 1    
    86   44  110 1    
    87   45   46 1    
    88   45   47 1    
    89   45  111 1    
    90   46  112 1    
    91   46  113 1    
    92   46  114 1    
    93   47   48 2    
    94   47   49 am   BACKBONE|DICT|INTERRES
    95   49   50 1    
    96   49  115 1    
    97   50   51 1    
    98   50   52 1    
    99   50  116 1    
   100   51  117 1    
   101   51  118 1    
   102   51  119 1    
   103   52   53 2    
   104   52   54 am   BACKBONE|DICT|INTERRES
   105   54   55 1    
   106   54  120 1    
   107   55   56 1    
   108   55   57 1    
   109   55  121 1    
   110   56  122 1    
   111   56  123 1    
   112   56  124 1    
   113   57   58 2    
   114   57   59 am   BACKBONE|DICT|INTERRES
   115   59   60 1    
   116   59  125 1    
   117   60   61 1    
   118   60   62 1    
   119   60  126 1    
   120   61  127 1    
   121   61  128 1    
   122   61  129 1    
   123   62   63 2    
   124   62   64 am   BACKBONE|DICT|INTERRES
   125   64   65 1    
   126   64  130 1    
   127   65   66 1    
   128   65   69 1    
   129   65  131 1    
   130   66   67 am   BACKBONE|DICT|INTERRES
   131   66   68 2    
   132   67  132 1    
   133   67  133 1    
   134   69   70 1    
   135   69  134 1    
   136   69  135 1    
   137   70   71 1    
   138   71  136 1    
   139   71  137 1    
@<TRIPOS>SUBSTRUCTURE
     1 UNK         1 GROUP             0       ****    0 ROOT    
