@<TRIPOS>MOLECULE
3R136
137   139    1
SMALL
USER_CHARGES


@<TRIPOS>ATOM
      1 CA         28.5935   28.7826   -1.5949 C.3       0 UNK        -0.1979 
      2 C          29.1066   27.3528   -1.6734 C.2       0 UNK         0.4864 
      3 O          29.4960   26.9005   -2.7505 O.2       0 UNK        -0.5359 
      4 N          29.0889   26.6359   -0.5410 N.am      1 UNK        -0.4318 
      5 CA         29.5067   25.2432   -0.3433 C.3       1 UNK         0.0824 
      6 C6         30.9787   24.9676   -0.7565 C.3       12 UNK        -0.0944 
      7 S7         31.5848   23.3405   -0.1960 S.3       12 UNK        -0.2672 
      8 C8         32.7679   23.7976    1.1108 C.3       12 UNK         0.0333 
      9 C9         32.0888   24.3617    2.3524 C.ar      12 UNK        -0.0807 
     10 C10        32.4011   25.6476    2.8034 C.ar      12 UNK        -0.0894 
     11 C11        31.8275   26.1538    3.9745 C.ar      12 UNK        -0.0804 
     12 C12        30.9304   25.3541    4.6946 C.ar      12 UNK        -0.0824 
     13 C13        30.5985   24.0713    4.2476 C.ar      12 UNK        -0.0762 
     14 C14        31.1832   23.5808    3.0770 C.ar      12 UNK        -0.0782 
     15 C15        29.6360   23.1976    5.0421 C.3       12 UNK         0.0230 
     16 S16        27.9166   23.3568    4.4571 S.3       12 UNK        -0.2608 
     17 C17        27.4530   24.9967    5.1065 C.3       12 UNK        -0.0989 
     18 CA         27.4480   26.0678    3.9891 C.3       5 UNK         0.0716 
     19 N          26.3348   25.8738    3.0555 N.am      5 UNK        -0.4135 
     20 C          26.2369   26.4701    1.8630 C.2       4 UNK         0.5031 
     21 O          27.1339   27.1492    1.3533 O.2       4 UNK        -0.5229 
     22 CA         24.8919   26.3339    1.1442 C.3       4 UNK         0.0329 
     23 CB         23.9478   27.4690    1.5906 C.3       4 UNK        -0.2001 
     24 N          25.1233   26.3901   -0.2962 N.am      4 UNK        -0.4303 
     25 C          24.2259   26.1159   -1.2511 C.2       3 UNK         0.5044 
     26 O          23.0633   25.7745   -1.0310 O.2       3 UNK        -0.5152 
     27 CA         24.7185   26.2295   -2.7030 C.3       3 UNK         0.0319 
     28 CB         24.9244   27.7005   -3.1020 C.3       3 UNK        -0.2001 
     29 N          25.9565   25.4784   -2.9177 N.am      3 UNK        -0.4354 
     30 C          26.0291   24.1397   -2.9808 C.2       2 UNK         0.4964 
     31 O          25.0507   23.3935   -2.9380 O.2       2 UNK        -0.5047 
     32 CA         27.4357   23.5299   -3.1010 C.3       2 UNK         0.0288 
     33 CB         27.8827   23.4729   -4.5707 C.3       2 UNK        -0.2113 
     34 N          28.4251   24.2715   -2.3185 N.am      2 UNK        -0.4145 
     35 C          28.4885   24.2780   -0.9802 C.2       1 UNK         0.5006 
     36 O          27.7577   23.6000   -0.2564 O.2       1 UNK        -0.5103 
     37 C          27.4144   27.4898    4.5868 C.2       5 UNK         0.5055 
     38 O          26.3727   28.1501    4.5650 O.2       5 UNK        -0.5220 
     39 N          28.5718   27.9419    5.0894 N.am      6 UNK        -0.4450 
     40 CA         28.8751   29.2698    5.6488 C.3       6 UNK         0.0367 
     41 CB         27.9435   29.6400    6.8192 C.3       6 UNK        -0.1929 
     42 C          28.9282   30.3922    4.5971 C.2       6 UNK         0.5070 
     43 O          29.7959   31.2582    4.6946 O.2       6 UNK        -0.5237 
     44 N          28.0569   30.3341    3.5811 N.am      7 UNK        -0.4739 
     45 CA         27.9683   31.2746    2.4573 C.3       7 UNK         0.0276 
     46 CB         26.7638   30.8910    1.5822 C.3       7 UNK        -0.1927 
     47 C          29.2489   31.3766    1.6054 C.2       7 UNK         0.5013 
     48 O          29.4839   32.4199    0.9958 O.2       7 UNK        -0.5193 
     49 N          30.0624   30.3108    1.5981 N.am      8 UNK        -0.4253 
     50 CA         31.3878   30.2768    0.9728 C.3       8 UNK         0.0242 
     51 CB         31.8133   28.8146    0.7621 C.3       8 UNK        -0.2000 
     52 C          32.4746   31.0295    1.7638 C.2       8 UNK         0.4948 
     53 O          33.5499   31.2552    1.2080 O.2       8 UNK        -0.5275 
     54 N          32.2191   31.3609    3.0405 N.am      9 UNK        -0.4246 
     55 CA         33.0858   32.0514    4.0114 C.3       9 UNK         0.0261 
     56 CB         33.4197   33.4804    3.5426 C.3       9 UNK        -0.1959 
     57 C          34.3667   31.2985    4.4244 C.2       9 UNK         0.5033 
     58 O          34.7553   31.3759    5.5920 O.2       9 UNK        -0.5390 
     59 N          34.9969   30.5774    3.4893 N.am      10 UNK        -0.4215 
     60 CA         36.2368   29.8060    3.6347 C.3       10 UNK         0.0240 
     61 CB         36.7887   29.5030    2.2287 C.3       10 UNK        -0.1982 
     62 C          36.0883   28.5331    4.4978 C.2       10 UNK         0.4970 
     63 O          36.4943   27.4479    4.0782 O.2       10 UNK        -0.4916 
     64 N          35.5138   28.6942    5.6899 N.am      11 UNK        -0.4279 
     65 CA         35.2928   27.6557    6.7028 C.3       11 UNK         0.1003 
     66 C          35.2877   28.2016    8.1603 C.2       11 UNK         0.5709 
     67 N          35.4685   29.4977    8.3961 N.am      11 UNK        -0.7358 
     68 O          35.1467   27.4286    9.1052 O.2       11 UNK        -0.4999 
     69 C69        34.0665   26.7587    6.3771 C.3       12 UNK        -0.0954 
     70 S70        32.5004   27.6882    6.2277 S.3       12 UNK        -0.2268 
     71 C71        32.1832   27.5657    4.4380 C.3       12 UNK         0.0203 
     72 H72        27.9927   28.9474   -0.7015 H         1 UNK         0.0888 
     73 H73        29.4307   29.4797   -1.5763 H         1 UNK         0.0888 
     74 H74        27.9800   29.0152   -2.4645 H         1 UNK         0.0888 
     75 H75        28.6230   27.0359    0.2720 H         1 UNK         0.3017 
     76 H76        29.4444   25.0854    0.7355 H         1 UNK         0.0873 
     77 H77        31.1055   25.0204   -1.8386 H         1 UNK         0.0745 
     78 H78        31.6245   25.7456   -0.3469 H         1 UNK         0.0745 
     79 H79        33.4964   24.5010    0.7044 H         1 UNK         0.0705 
     80 H80        33.3313   22.9081    1.3960 H         1 UNK         0.0705 
     81 H81        33.1071   26.2501    2.2483 H         1 UNK         0.1334 
     82 H82        30.5018   25.7200    5.6164 H         1 UNK         0.1417 
     83 H83        30.9410   22.5845    2.7320 H         1 UNK         0.1562 
     84 H84        29.6906   23.4330    6.1062 H         1 UNK         0.0748 
     85 H85        29.9360   22.1522    4.9539 H         1 UNK         0.0748 
     86 H86        28.1363   25.2596    5.9156 H         1 UNK         0.0940 
     87 H87        26.4686   24.9222    5.5726 H         1 UNK         0.0940 
     88 H88        28.3749   25.9819    3.4171 H         1 UNK         0.0703 
     89 H89        25.5435   25.3585    3.4106 H         1 UNK         0.3081 
     90 H90        24.4524   25.3651    1.3908 H         1 UNK         0.0719 
     91 H91        24.3380   28.4477    1.3075 H         1 UNK         0.0809 
     92 H92        22.9545   27.3657    1.1546 H         1 UNK         0.0809 
     93 H93        23.8219   27.4721    2.6743 H         1 UNK         0.0809 
     94 H94        26.0655   26.6509   -0.5511 H         1 UNK         0.2990 
     95 H95        23.9469   25.8111   -3.3533 H         1 UNK         0.0690 
     96 H96        25.2294   27.7899   -4.1448 H         1 UNK         0.0788 
     97 H97        25.6793   28.1908   -2.4876 H         1 UNK         0.0788 
     98 H98        23.9981   28.2654   -2.9878 H         1 UNK         0.0788 
     99 H99        26.8121   26.0083   -2.9935 H         1 UNK         0.2993 
    100 H100       27.3893   22.5089   -2.7153 H         1 UNK         0.0949 
    101 H101       27.9699   24.4688   -5.0072 H         1 UNK         0.0767 
    102 H102       28.8486   22.9772   -4.6710 H         1 UNK         0.0767 
    103 H103       27.1674   22.9124   -5.1743 H         1 UNK         0.0767 
    104 H104       29.0196   24.9284   -2.8146 H         1 UNK         0.3013 
    105 H105       29.3687   27.3251    5.0336 H         1 UNK         0.3121 
    106 H106       29.8818   29.1909    6.0612 H         1 UNK         0.0774 
    107 H107       28.2797   30.5579    7.3032 H         1 UNK         0.0815 
    108 H108       26.9171   29.8090    6.4929 H         1 UNK         0.0815 
    109 H109       27.9312   28.8591    7.5793 H         1 UNK         0.0815 
    110 H110       27.3563   29.5998    3.6210 H         1 UNK         0.2987 
    111 H111       27.7869   32.2668    2.8759 H         1 UNK         0.0949 
    112 H112       26.6724   31.5570    0.7229 H         1 UNK         0.0806 
    113 H113       26.8492   29.8733    1.2014 H         1 UNK         0.0806 
    114 H114       25.8310   30.9577    2.1425 H         1 UNK         0.0806 
    115 H115       29.7722   29.4945    2.1153 H         1 UNK         0.3010 
    116 H116       31.3215   30.7557   -0.0066 H         1 UNK         0.0829 
    117 H117       31.1740   28.3182    0.0379 H         1 UNK         0.0813 
    118 H118       32.8322   28.7466    0.3775 H         1 UNK         0.0813 
    119 H119       31.7746   28.2448    1.6878 H         1 UNK         0.0813 
    120 H120       31.2977   31.1439    3.4092 H         1 UNK         0.3038 
    121 H121       32.4837   32.1404    4.9172 H         1 UNK         0.0769 
    122 H122       33.9736   34.0221    4.3105 H         1 UNK         0.0811 
    123 H123       32.5137   34.0497    3.3346 H         1 UNK         0.0811 
    124 H124       34.0320   33.4826    2.6404 H         1 UNK         0.0811 
    125 H125       34.6013   30.6288    2.5520 H         1 UNK         0.3204 
    126 H126       36.9635   30.4420    4.1442 H         1 UNK         0.0748 
    127 H127       37.7494   28.9891    2.2840 H         1 UNK         0.0771 
    128 H128       36.1087   28.8683    1.6588 H         1 UNK         0.0771 
    129 H129       36.9478   30.4189    1.6590 H         1 UNK         0.0771 
    130 H130       35.1777   29.6254    5.9213 H         1 UNK         0.2980 
    131 H131       36.1711   27.0082    6.6782 H         1 UNK         0.0545 
    132 H132       35.5944   30.1632    7.6500 H         1 UNK         0.3459 
    133 H133       35.4707   29.8178    9.3517 H         1 UNK         0.3459 
    134 H134       33.9364   25.9906    7.1411 H         1 UNK         0.0616 
    135 H135       34.2528   26.2119    5.4519 H         1 UNK         0.0616 
    136 H136       31.3667   28.2388    4.1789 H         1 UNK         0.0634 
    137 H137       33.0622   27.9375    3.9090 H         1 UNK         0.0634 
@<TRIPOS>BOND
     1    1    2 1    
     2    1   72 1    
     3    1   73 1    
     4    1   74 1    
     5    2    3 2    
     6    2    4 am   BACKBONE|DICT|INTERRES
     7    4    5 1    
     8    4   75 1    
     9    5    6 1    
    10    5   35 1    
    11    5   76 1    
    12    6    7 1    
    13    6   77 1    
    14    6   78 1    
    15    7    8 1    
    16    8    9 1    
    17    8   79 1    
    18    8   80 1    
    19    9   10 ar   
    20    9   14 ar   
    21   10   11 ar   
    22   10   81 1    
    23   11   12 ar   
    24   11   71 1    
    25   12   13 ar   
    26   12   82 1    
    27   13   14 ar   
    28   13   15 1    
    29   14   83 1    
    30   15   16 1    
    31   15   84 1    
    32   15   85 1    
    33   16   17 1    
    34   17   18 1    
    35   17   86 1    
    36   17   87 1    
    37   18   19 1    
    38   18   37 1    
    39   18   88 1    
    40   19   20 am   BACKBONE|DICT|INTERRES
    41   19   89 1    
    42   20   21 2    
    43   20   22 1    
    44   22   23 1    
    45   22   24 1    
    46   22   90 1    
    47   23   91 1    
    48   23   92 1    
    49   23   93 1    
    50   24   25 am   BACKBONE|DICT|INTERRES
    51   24   94 1    
    52   25   26 2    
    53   25   27 1    
    54   27   28 1    
    55   27   29 1    
    56   27   95 1    
    57   28   96 1    
    58   28   97 1    
    59   28   98 1    
    60   29   30 am   BACKBONE|DICT|INTERRES
    61   29   99 1    
    62   30   31 2    
    63   30   32 1    
    64   32   33 1    
    65   32   34 1    
    66   32  100 1    
    67   33  101 1    
    68   33  102 1    
    69   33  103 1    
    70   34   35 am   BACKBONE|DICT|INTERRES
    71   34  104 1    
    72   35   36 2    
    73   37   38 2    
    74   37   39 am   BACKBONE|DICT|INTERRES
    75   39   40 1    
    76   39  105 1    
    77   40   41 1    
    78   40   42 1    
    79   40  106 1    
    80   41  107 1    
    81   41  108 1    
    82   41  109 1    
    83   42   43 2    
    84   42   44 am   BACKBONE|DICT|INTERRES
    85   44   45 1    
    86   44  110 1    
    87   45   46 1    
    88   45   47 1    
    89   45  111 1    
    90   46  112 1    
    91   46  113 1    
    92   46  114 1    
    93   47   48 2    
    94   47   49 am   BACKBONE|DICT|INTERRES
    95   49   50 1    
    96   49  115 1    
    97   50   51 1    
    98   50   52 1    
    99   50  116 1    
   100   51  117 1    
   101   51  118 1    
   102   51  119 1    
   103   52   53 2    
   104   52   54 am   BACKBONE|DICT|INTERRES
   105   54   55 1    
   106   54  120 1    
   107   55   56 1    
   108   55   57 1    
   109   55  121 1    
   110   56  122 1    
   111   56  123 1    
   112   56  124 1    
   113   57   58 2    
   114   57   59 am   BACKBONE|DICT|INTERRES
   115   59   60 1    
   116   59  125 1    
   117   60   61 1    
   118   60   62 1    
   119   60  126 1    
   120   61  127 1    
   121   61  128 1    
   122   61  129 1    
   123   62   63 2    
   124   62   64 am   BACKBONE|DICT|INTERRES
   125   64   65 1    
   126   64  130 1    
   127   65   66 1    
   128   65   69 1    
   129   65  131 1    
   130   66   67 am   BACKBONE|DICT|INTERRES
   131   66   68 2    
   132   67  132 1    
   133   67  133 1    
   134   69   70 1    
   135   69  134 1    
   136   69  135 1    
   137   70   71 1    
   138   71  136 1    
   139   71  137 1    
@<TRIPOS>SUBSTRUCTURE
     1 UNK         1 GROUP             0       ****    0 ROOT    
