@<TRIPOS>MOLECULE
3R136
137   139    1
SMALL
USER_CHARGES


@<TRIPOS>ATOM
      1 CA         29.2627   19.9281    1.4172 C.3       0 UNK        -0.1979 
      2 C          29.1505   20.5694    0.0420 C.2       0 UNK         0.4864 
      3 O          29.2585   19.8704   -0.9666 O.2       0 UNK        -0.5359 
      4 N          28.9300   21.8881    0.0008 N.am      1 UNK        -0.4318 
      5 CA         28.7386   22.6821   -1.2120 C.3       1 UNK         0.0824 
      6 C6         29.8623   23.7294   -1.4318 C.3       12 UNK        -0.0944 
      7 S7         31.5084   22.9764   -1.6788 S.3       12 UNK        -0.2672 
      8 C8         32.6231   24.2254   -0.9303 C.3       12 UNK         0.0333 
      9 C9         32.5339   24.4043    0.5898 C.ar      12 UNK        -0.0807 
     10 C10        33.2918   25.4133    1.1940 C.ar      12 UNK        -0.0894 
     11 C11        33.2306   25.6318    2.5758 C.ar      12 UNK        -0.0804 
     12 C12        32.3780   24.8460    3.3587 C.ar      12 UNK        -0.0824 
     13 C13        31.5959   23.8523    2.7667 C.ar      12 UNK        -0.0762 
     14 C14        31.7142   23.6104    1.3980 C.ar      12 UNK        -0.0782 
     15 C15        30.5878   23.0541    3.5770 C.3       12 UNK         0.0230 
     16 S16        28.8835   23.4855    3.0849 S.3       12 UNK        -0.2608 
     17 C17        28.5523   24.9686    4.0922 C.3       12 UNK        -0.0989 
     18 CA         28.9606   26.3074    3.4242 C.3       5 UNK         0.0716 
     19 N          28.3092   26.5375    2.1285 N.am      5 UNK        -0.4135 
     20 C          28.5235   27.6044    1.3401 C.2       4 UNK         0.5031 
     21 O          29.3145   28.5114    1.6132 O.2       4 UNK        -0.5229 
     22 CA         27.7210   27.7150    0.0360 C.3       4 UNK         0.0329 
     23 CB         28.5625   27.2681   -1.1677 C.3       4 UNK        -0.2001 
     24 N          26.4805   26.9394    0.0654 N.am      4 UNK        -0.4303 
     25 C          25.2591   27.4614    0.2418 C.2       3 UNK         0.5044 
     26 O          25.0582   28.6578    0.4553 O.2       3 UNK        -0.5152 
     27 CA         24.0520   26.4990    0.1823 C.3       3 UNK         0.0319 
     28 CB         22.8265   27.1430   -0.5010 C.3       3 UNK        -0.2001 
     29 N          24.3412   25.1835   -0.4066 N.am      3 UNK        -0.4354 
     30 C          24.7493   24.9106   -1.6559 C.2       2 UNK         0.4964 
     31 O          24.9401   25.7553   -2.5323 O.2       2 UNK        -0.5047 
     32 CA         25.0229   23.4264   -1.9578 C.3       2 UNK         0.0288 
     33 CB         24.3757   23.0032   -3.2887 C.3       2 UNK        -0.2113 
     34 N          26.4487   23.0771   -1.9877 N.am      2 UNK        -0.4145 
     35 C          27.3667   23.3534   -1.0487 C.2       1 UNK         0.5006 
     36 O          27.1650   24.0663   -0.0599 O.2       1 UNK        -0.5103 
     37 C          28.6908   27.4777    4.3914 C.2       5 UNK         0.5055 
     38 O          27.5401   27.6869    4.7807 O.2       5 UNK        -0.5220 
     39 N          29.7541   28.2208    4.7288 N.am      6 UNK        -0.4450 
     40 CA         29.7693   29.4245    5.5707 C.3       6 UNK         0.0367 
     41 CB         29.3281   29.1033    7.0147 C.3       6 UNK        -0.1929 
     42 C          29.0141   30.6276    4.9662 C.2       6 UNK         0.5070 
     43 O          28.6663   31.5519    5.7033 O.2       6 UNK        -0.5237 
     44 N          28.7847   30.6090    3.6462 N.am      7 UNK        -0.4739 
     45 CA         28.1337   31.6810    2.8917 C.3       7 UNK         0.0276 
     46 CB         26.7886   31.1799    2.3425 C.3       7 UNK        -0.1927 
     47 C          29.0350   32.1849    1.7573 C.2       7 UNK         0.5013 
     48 O          29.1112   33.3958    1.5467 O.2       7 UNK        -0.5193 
     49 N          29.7139   31.2650    1.0558 N.am      8 UNK        -0.4253 
     50 CA         30.6545   31.5811   -0.0237 C.3       8 UNK         0.0242 
     51 CB         30.8226   30.3445   -0.9203 C.3       8 UNK        -0.2000 
     52 C          32.0239   32.0636    0.4868 C.2       8 UNK         0.4948 
     53 O          32.7484   32.7188   -0.2638 O.2       8 UNK        -0.5275 
     54 N          32.3566   31.7335    1.7383 N.am      9 UNK        -0.4246 
     55 CA         33.5862   32.0911    2.4345 C.3       9 UNK         0.0261 
     56 CB         34.7315   31.1607    1.9879 C.3       9 UNK        -0.1959 
     57 C          33.3266   31.9708    3.9402 C.2       9 UNK         0.5033 
     58 O          32.2958   31.4231    4.3435 O.2       9 UNK        -0.5390 
     59 N          34.2752   32.4494    4.7536 N.am      10 UNK        -0.4215 
     60 CA         34.2664   32.3272    6.2143 C.3       10 UNK         0.0240 
     61 CB         35.1678   33.4231    6.8142 C.3       10 UNK        -0.1982 
     62 C          34.6816   30.9087    6.6544 C.2       10 UNK         0.4970 
     63 O          35.7489   30.7305    7.2442 O.2       10 UNK        -0.4916 
     64 N          33.8419   29.9228    6.3190 N.am      11 UNK        -0.4279 
     65 CA         34.0679   28.4868    6.5570 C.3       11 UNK         0.1003 
     66 C          34.0468   28.0521    8.0520 C.2       11 UNK         0.5709 
     67 N          33.5365   28.8603    8.9738 N.am      11 UNK        -0.7358 
     68 O          34.5051   26.9601    8.3791 O.2       11 UNK        -0.4999 
     69 C69        33.1040   27.6004    5.7225 C.3       12 UNK        -0.0954 
     70 S70        33.0719   28.0384    3.9479 S.3       12 UNK        -0.2268 
     71 C71        34.0860   26.7183    3.2137 C.3       12 UNK         0.0203 
     72 H72        30.3057   19.7105    1.6454 H         1 UNK         0.0888 
     73 H73        28.8671   20.5740    2.2002 H         1 UNK         0.0888 
     74 H74        28.7048   18.9925    1.4439 H         1 UNK         0.0888 
     75 H75        28.7761   22.4011    0.8611 H         1 UNK         0.3017 
     76 H76        28.7046   22.0334   -2.0899 H         1 UNK         0.0873 
     77 H77        29.6470   24.3365   -2.3129 H         1 UNK         0.0745 
     78 H78        29.9101   24.4156   -0.5850 H         1 UNK         0.0745 
     79 H79        32.4332   25.1855   -1.4126 H         1 UNK         0.0705 
     80 H80        33.6486   23.9522   -1.1824 H         1 UNK         0.0705 
     81 H81        33.9359   26.0310    0.5828 H         1 UNK         0.1334 
     82 H82        32.3040   25.0243    4.4218 H         1 UNK         0.1417 
     83 H83        31.1286   22.8161    0.9679 H         1 UNK         0.1562 
     84 H84        30.7247   23.2073    4.6484 H         1 UNK         0.0748 
     85 H85        30.7499   21.9903    3.3979 H         1 UNK         0.0748 
     86 H86        29.0543   24.8531    5.0548 H         1 UNK         0.0940 
     87 H87        27.4838   24.9729    4.3178 H         1 UNK         0.0940 
     88 H88        30.0322   26.2712    3.2250 H         1 UNK         0.0703 
     89 H89        27.6571   25.8284    1.8265 H         1 UNK         0.3081 
     90 H90        27.5002   28.7751   -0.1037 H         1 UNK         0.0719 
     91 H91        28.6463   26.1869   -1.2111 H         1 UNK         0.0809 
     92 H92        28.1119   27.5995   -2.1033 H         1 UNK         0.0809 
     93 H93        29.5739   27.6733   -1.1296 H         1 UNK         0.0809 
     94 H94        26.5636   25.9378   -0.0842 H         1 UNK         0.2990 
     95 H95        23.7816   26.3058    1.2214 H         1 UNK         0.0690 
     96 H96        21.9755   26.4622   -0.5141 H         1 UNK         0.0788 
     97 H97        23.0423   27.4310   -1.5304 H         1 UNK         0.0788 
     98 H98        22.5092   28.0431    0.0270 H         1 UNK         0.0788 
     99 H99        24.2683   24.4076    0.2378 H         1 UNK         0.2993 
    100 H100       24.5653   22.8278   -1.1674 H         1 UNK         0.0949 
    101 H101       24.8372   23.5054   -4.1401 H         1 UNK         0.0767 
    102 H102       24.4582   21.9278   -3.4480 H         1 UNK         0.0767 
    103 H103       23.3130   23.2500   -3.3022 H         1 UNK         0.0767 
    104 H104       26.7329   22.4993   -2.7655 H         1 UNK         0.3013 
    105 H105       30.6443   27.9912    4.3037 H         1 UNK         0.3121 
    106 H106       30.8118   29.7351    5.6215 H         1 UNK         0.0774 
    107 H107       29.5000   29.9547    7.6741 H         1 UNK         0.0815 
    108 H108       28.2664   28.8616    7.0701 H         1 UNK         0.0815 
    109 H109       29.8872   28.2623    7.4244 H         1 UNK         0.0815 
    110 H110       29.0934   29.8011    3.1154 H         1 UNK         0.2987 
    111 H111       27.9344   32.5366    3.5408 H         1 UNK         0.0949 
    112 H112       26.2827   31.9598    1.7719 H         1 UNK         0.0806 
    113 H113       26.9139   30.3219    1.6829 H         1 UNK         0.0806 
    114 H114       26.1193   30.8819    3.1497 H         1 UNK         0.0806 
    115 H115       29.5895   30.2779    1.2716 H         1 UNK         0.3010 
    116 H116       30.2321   32.3847   -0.6310 H         1 UNK         0.0829 
    117 H117       29.8737   30.0578   -1.3730 H         1 UNK         0.0813 
    118 H118       31.5213   30.5419   -1.7345 H         1 UNK         0.0813 
    119 H119       31.2050   29.4897   -0.3607 H         1 UNK         0.0813 
    120 H120       31.6892   31.2432    2.3220 H         1 UNK         0.3038 
    121 H121       33.8379   33.1297    2.2100 H         1 UNK         0.0769 
    122 H122       35.6649   31.4034    2.4965 H         1 UNK         0.0811 
    123 H123       34.9198   31.2470    0.9178 H         1 UNK         0.0811 
    124 H124       34.5052   30.1154    2.2015 H         1 UNK         0.0811 
    125 H125       35.1034   32.8575    4.3437 H         1 UNK         0.3204 
    126 H126       33.2508   32.4986    6.5785 H         1 UNK         0.0748 
    127 H127       36.2017   33.3279    6.4797 H         1 UNK         0.0771 
    128 H128       34.8172   34.4183    6.5399 H         1 UNK         0.0771 
    129 H129       35.1714   33.3723    7.9040 H         1 UNK         0.0771 
    130 H130       33.0318   30.1671    5.7604 H         1 UNK         0.2980 
    131 H131       35.0793   28.2749    6.2050 H         1 UNK         0.0545 
    132 H132       33.5322   28.5683    9.9382 H         1 UNK         0.3459 
    133 H133       33.1619   29.7584    8.7157 H         1 UNK         0.3459 
    134 H134       32.0900   27.6829    6.1130 H         1 UNK         0.0616 
    135 H135       33.3737   26.5488    5.8296 H         1 UNK         0.0616 
    136 H136       34.7393   27.1743    2.4684 H         1 UNK         0.0634 
    137 H137       34.7465   26.2785    3.9619 H         1 UNK         0.0634 
@<TRIPOS>BOND
     1    1    2 1    
     2    1   72 1    
     3    1   73 1    
     4    1   74 1    
     5    2    3 2    
     6    2    4 am   BACKBONE|DICT|INTERRES
     7    4    5 1    
     8    4   75 1    
     9    5    6 1    
    10    5   35 1    
    11    5   76 1    
    12    6    7 1    
    13    6   77 1    
    14    6   78 1    
    15    7    8 1    
    16    8    9 1    
    17    8   79 1    
    18    8   80 1    
    19    9   10 ar   
    20    9   14 ar   
    21   10   11 ar   
    22   10   81 1    
    23   11   12 ar   
    24   11   71 1    
    25   12   13 ar   
    26   12   82 1    
    27   13   14 ar   
    28   13   15 1    
    29   14   83 1    
    30   15   16 1    
    31   15   84 1    
    32   15   85 1    
    33   16   17 1    
    34   17   18 1    
    35   17   86 1    
    36   17   87 1    
    37   18   19 1    
    38   18   37 1    
    39   18   88 1    
    40   19   20 am   BACKBONE|DICT|INTERRES
    41   19   89 1    
    42   20   21 2    
    43   20   22 1    
    44   22   23 1    
    45   22   24 1    
    46   22   90 1    
    47   23   91 1    
    48   23   92 1    
    49   23   93 1    
    50   24   25 am   BACKBONE|DICT|INTERRES
    51   24   94 1    
    52   25   26 2    
    53   25   27 1    
    54   27   28 1    
    55   27   29 1    
    56   27   95 1    
    57   28   96 1    
    58   28   97 1    
    59   28   98 1    
    60   29   30 am   BACKBONE|DICT|INTERRES
    61   29   99 1    
    62   30   31 2    
    63   30   32 1    
    64   32   33 1    
    65   32   34 1    
    66   32  100 1    
    67   33  101 1    
    68   33  102 1    
    69   33  103 1    
    70   34   35 am   BACKBONE|DICT|INTERRES
    71   34  104 1    
    72   35   36 2    
    73   37   38 2    
    74   37   39 am   BACKBONE|DICT|INTERRES
    75   39   40 1    
    76   39  105 1    
    77   40   41 1    
    78   40   42 1    
    79   40  106 1    
    80   41  107 1    
    81   41  108 1    
    82   41  109 1    
    83   42   43 2    
    84   42   44 am   BACKBONE|DICT|INTERRES
    85   44   45 1    
    86   44  110 1    
    87   45   46 1    
    88   45   47 1    
    89   45  111 1    
    90   46  112 1    
    91   46  113 1    
    92   46  114 1    
    93   47   48 2    
    94   47   49 am   BACKBONE|DICT|INTERRES
    95   49   50 1    
    96   49  115 1    
    97   50   51 1    
    98   50   52 1    
    99   50  116 1    
   100   51  117 1    
   101   51  118 1    
   102   51  119 1    
   103   52   53 2    
   104   52   54 am   BACKBONE|DICT|INTERRES
   105   54   55 1    
   106   54  120 1    
   107   55   56 1    
   108   55   57 1    
   109   55  121 1    
   110   56  122 1    
   111   56  123 1    
   112   56  124 1    
   113   57   58 2    
   114   57   59 am   BACKBONE|DICT|INTERRES
   115   59   60 1    
   116   59  125 1    
   117   60   61 1    
   118   60   62 1    
   119   60  126 1    
   120   61  127 1    
   121   61  128 1    
   122   61  129 1    
   123   62   63 2    
   124   62   64 am   BACKBONE|DICT|INTERRES
   125   64   65 1    
   126   64  130 1    
   127   65   66 1    
   128   65   69 1    
   129   65  131 1    
   130   66   67 am   BACKBONE|DICT|INTERRES
   131   66   68 2    
   132   67  132 1    
   133   67  133 1    
   134   69   70 1    
   135   69  134 1    
   136   69  135 1    
   137   70   71 1    
   138   71  136 1    
   139   71  137 1    
@<TRIPOS>SUBSTRUCTURE
     1 UNK         1 GROUP             0       ****    0 ROOT    
