@<TRIPOS>MOLECULE
3R136
137   139    1
SMALL
USER_CHARGES


@<TRIPOS>ATOM
      1 CA         28.6754   20.2129   -1.6426 C.3       0 UNK        -0.1979 
      2 C          28.6003   21.5537   -0.9288 C.2       0 UNK         0.4864 
      3 O          28.6610   22.5976   -1.5780 O.2       0 UNK        -0.5359 
      4 N          28.4466   21.5367    0.4014 N.am      1 UNK        -0.4318 
      5 CA         28.4202   22.6993    1.3049 C.3       1 UNK         0.0824 
      6 C6         28.7676   22.2879    2.7672 C.3       12 UNK        -0.0944 
      7 S7         30.1652   21.1139    2.9210 S.3       12 UNK        -0.2672 
      8 C8         31.4451   22.0967    3.7764 C.3       12 UNK         0.0333 
      9 C9         32.2340   23.0839    2.9127 C.ar      12 UNK        -0.0807 
     10 C10        33.1753   23.9020    3.5473 C.ar      12 UNK        -0.0894 
     11 C11        33.9310   24.8255    2.8197 C.ar      12 UNK        -0.0804 
     12 C12        33.7435   24.9296    1.4400 C.ar      12 UNK        -0.0824 
     13 C13        32.7859   24.1454    0.7939 C.ar      12 UNK        -0.0762 
     14 C14        32.0535   23.2096    1.5281 C.ar      12 UNK        -0.0782 
     15 C15        32.5279   24.3182   -0.6949 C.3       12 UNK         0.0230 
     16 S16        31.0452   25.3316   -1.0071 S.3       12 UNK        -0.2608 
     17 C17        31.5956   27.0010   -0.4949 C.3       12 UNK        -0.0989 
     18 CA         30.5358   27.8347    0.2686 C.3       5 UNK         0.0716 
     19 N          29.3138   28.0178   -0.4952 N.am      5 UNK        -0.4135 
     20 C          28.9450   29.1311   -1.1299 C.2       4 UNK         0.5031 
     21 O          29.7019   30.0711   -1.3739 O.2       4 UNK        -0.5229 
     22 CA         27.4529   29.2365   -1.4981 C.3       4 UNK         0.0329 
     23 CB         27.2226   28.7726   -2.9447 C.3       4 UNK        -0.2001 
     24 N          26.5659   28.4798   -0.6033 N.am      4 UNK        -0.4303 
     25 C          26.4751   28.6076    0.7282 C.2       3 UNK         0.5044 
     26 O          27.1352   29.4177    1.3788 O.2       3 UNK        -0.5152 
     27 CA         25.5261   27.6567    1.4801 C.3       3 UNK         0.0319 
     28 CB         24.0986   28.2319    1.5282 C.3       3 UNK        -0.2001 
     29 N          25.5300   26.2604    1.0180 N.am      3 UNK        -0.4354 
     30 C          25.1438   25.7487   -0.1583 C.2       2 UNK         0.4964 
     31 O          24.7429   26.4323   -1.1024 O.2       2 UNK        -0.5047 
     32 CA         25.2390   24.2182   -0.3047 C.3       2 UNK         0.0288 
     33 CB         24.8402   23.7309   -1.7110 C.3       2 UNK        -0.2113 
     34 N          26.5708   23.6933    0.0064 N.am      2 UNK        -0.4145 
     35 C          27.0772   23.4717    1.2264 C.2       1 UNK         0.5006 
     36 O          26.4968   23.8192    2.2579 O.2       1 UNK        -0.5103 
     37 C          30.1132   27.2438    1.6260 C.2       5 UNK         0.5055 
     38 O          29.0597   26.6043    1.7077 O.2       5 UNK        -0.5220 
     39 N          30.9159   27.5184    2.6606 N.am      6 UNK        -0.4450 
     40 CA         30.7352   27.2089    4.0836 C.3       6 UNK         0.0367 
     41 CB         30.1106   25.8265    4.3560 C.3       6 UNK        -0.1929 
     42 C          29.9985   28.3170    4.8481 C.2       6 UNK         0.5070 
     43 O          30.4020   28.6043    5.9760 O.2       6 UNK        -0.5237 
     44 N          28.9606   28.9202    4.2474 N.am      7 UNK        -0.4739 
     45 CA         28.1624   29.9831    4.8676 C.3       7 UNK         0.0276 
     46 CB         26.6663   29.6271    4.8196 C.3       7 UNK        -0.1927 
     47 C          28.4375   31.3493    4.2244 C.2       7 UNK         0.5013 
     48 O          28.8342   32.2697    4.9387 O.2       7 UNK        -0.5193 
     49 N          28.2183   31.4728    2.9051 N.am      8 UNK        -0.4253 
     50 CA         28.4233   32.7141    2.1464 C.3       8 UNK         0.0242 
     51 CB         27.7768   32.5998    0.7570 C.3       8 UNK        -0.2000 
     52 C          29.9114   33.0794    2.0416 C.2       8 UNK         0.4948 
     53 O          30.2914   34.2002    2.3829 O.2       8 UNK        -0.5275 
     54 N          30.7302   32.0985    1.6419 N.am      9 UNK        -0.4246 
     55 CA         32.1669   32.0823    1.8979 C.3       9 UNK         0.0261 
     56 CB         32.9034   31.3910    0.7368 C.3       9 UNK        -0.1959 
     57 C          32.3245   31.3277    3.2207 C.2       9 UNK         0.5033 
     58 O          32.2488   30.0973    3.2219 O.2       9 UNK        -0.5390 
     59 N          32.4273   32.0821    4.3220 N.am      10 UNK        -0.4215 
     60 CA         32.2829   31.6292    5.7110 C.3       10 UNK         0.0240 
     61 CB         32.0056   32.8577    6.5986 C.3       10 UNK        -0.1982 
     62 C          33.4465   30.7665    6.2453 C.2       10 UNK         0.4970 
     63 O          33.9421   31.0164    7.3460 O.2       10 UNK        -0.4916 
     64 N          33.8638   29.7669    5.4657 N.am      11 UNK        -0.4279 
     65 CA         34.8845   28.7734    5.8230 C.3       11 UNK         0.1003 
     66 C          34.3813   27.6312    6.7549 C.2       11 UNK         0.5709 
     67 N          33.0913   27.5210    7.0541 N.am      11 UNK        -0.7358 
     68 O          35.1858   26.8345    7.2318 O.2       11 UNK        -0.4999 
     69 C69        35.6193   28.2425    4.5635 C.3       12 UNK        -0.0954 
     70 S70        34.5057   27.4753    3.3397 S.3       12 UNK        -0.2268 
     71 C71        34.9414   25.7188    3.5222 C.3       12 UNK         0.0203 
     72 H72        29.6162   20.1310   -2.1863 H         1 UNK         0.0888 
     73 H73        28.6122   19.3764   -0.9469 H         1 UNK         0.0888 
     74 H74        27.8586   20.1226   -2.3582 H         1 UNK         0.0888 
     75 H75        28.3877   20.6442    0.8712 H         1 UNK         0.3017 
     76 H76        29.1826   23.4041    0.9675 H         1 UNK         0.0873 
     77 H77        28.9698   23.1773    3.3658 H         1 UNK         0.0745 
     78 H78        27.9098   21.8025    3.2370 H         1 UNK         0.0745 
     79 H79        32.1549   21.3965    4.2189 H         1 UNK         0.0705 
     80 H80        30.9838   22.6288    4.6097 H         1 UNK         0.0705 
     81 H81        33.3167   23.8211    4.6167 H         1 UNK         0.1334 
     82 H82        34.3258   25.6463    0.8773 H         1 UNK         0.1417 
     83 H83        31.3371   22.5943    1.0053 H         1 UNK         0.1562 
     84 H84        32.3875   23.3396   -1.1564 H         1 UNK         0.0748 
     85 H85        33.3891   24.7689   -1.1908 H         1 UNK         0.0748 
     86 H86        32.5029   26.9343    0.1034 H         1 UNK         0.0940 
     87 H87        31.8892   27.5398   -1.3970 H         1 UNK         0.0940 
     88 H88        30.9630   28.8156    0.4794 H         1 UNK         0.0703 
     89 H89        28.6068   27.3259   -0.2825 H         1 UNK         0.3081 
     90 H90        27.1695   30.2877   -1.4240 H         1 UNK         0.0719 
     91 H91        27.4583   27.7150   -3.0709 H         1 UNK         0.0809 
     92 H92        26.1869   28.9239   -3.2498 H         1 UNK         0.0809 
     93 H93        27.8497   29.3330   -3.6396 H         1 UNK         0.0809 
     94 H94        25.9552   27.7879   -1.0328 H         1 UNK         0.2990 
     95 H95        25.8936   27.6092    2.5060 H         1 UNK         0.0690 
     96 H96        23.4434   27.6142    2.1424 H         1 UNK         0.0788 
     97 H97        23.6549   28.3076    0.5350 H         1 UNK         0.0788 
     98 H98        24.0978   29.2337    1.9603 H         1 UNK         0.0788 
     99 H99        25.8916   25.5892    1.6912 H         1 UNK         0.2993 
    100 H100       24.5269   23.7922    0.4057 H         1 UNK         0.0949 
    101 H101       25.5138   24.1178   -2.4769 H         1 UNK         0.0767 
    102 H102       24.8540   22.6424   -1.7720 H         1 UNK         0.0767 
    103 H103       23.8304   24.0542   -1.9679 H         1 UNK         0.0767 
    104 H104       27.1512   23.4152   -0.7817 H         1 UNK         0.3013 
    105 H105       31.7062   28.1337    2.4962 H         1 UNK         0.3121 
    106 H106       31.7491   27.1773    4.4838 H         1 UNK         0.0774 
    107 H107       30.2668   25.5298    5.3934 H         1 UNK         0.0815 
    108 H108       29.0347   25.8216    4.1779 H         1 UNK         0.0815 
    109 H109       30.5545   25.0622    3.7232 H         1 UNK         0.0815 
    110 H110       28.7013   28.6297    3.3141 H         1 UNK         0.2987 
    111 H111       28.4258   30.0763    5.9238 H         1 UNK         0.0949 
    112 H112       26.0767   30.3711    5.3567 H         1 UNK         0.0806 
    113 H113       26.2788   29.5872    3.8036 H         1 UNK         0.0806 
    114 H114       26.4739   28.6627    5.2896 H         1 UNK         0.0806 
    115 H115       27.8507   30.6758    2.3850 H         1 UNK         0.3010 
    116 H116       27.9205   33.5206    2.6847 H         1 UNK         0.0829 
    117 H117       26.7128   32.3744    0.8313 H         1 UNK         0.0813 
    118 H118       27.8743   33.5346    0.2035 H         1 UNK         0.0813 
    119 H119       28.2422   31.8176    0.1591 H         1 UNK         0.0813 
    120 H120       30.3153   31.2104    1.4011 H         1 UNK         0.3038 
    121 H121       32.5598   33.0965    1.9979 H         1 UNK         0.0769 
    122 H122       33.9805   31.3967    0.9072 H         1 UNK         0.0811 
    123 H123       32.7204   31.9044   -0.2073 H         1 UNK         0.0811 
    124 H124       32.6045   30.3518    0.6120 H         1 UNK         0.0811 
    125 H125       32.4758   33.0833    4.1974 H         1 UNK         0.3204 
    126 H126       31.3924   31.0011    5.7520 H         1 UNK         0.0748 
    127 H127       31.8016   32.5613    7.6285 H         1 UNK         0.0771 
    128 H128       32.8537   33.5432    6.6158 H         1 UNK         0.0771 
    129 H129       31.1322   33.4093    6.2492 H         1 UNK         0.0771 
    130 H130       33.3900   29.6300    4.5752 H         1 UNK         0.2980 
    131 H131       35.6410   29.2946    6.4126 H         1 UNK         0.0545 
    132 H132       32.7976   26.7799    7.6693 H         1 UNK         0.3459 
    133 H133       32.4026   28.1558    6.6725 H         1 UNK         0.3459 
    134 H134       36.4111   27.5439    4.8398 H         1 UNK         0.0616 
    135 H135       36.1253   29.0715    4.0669 H         1 UNK         0.0616 
    136 H136       34.9983   25.4708    4.5831 H         1 UNK         0.0634 
    137 H137       35.9343   25.5468    3.1048 H         1 UNK         0.0634 
@<TRIPOS>BOND
     1    1    2 1    
     2    1   72 1    
     3    1   73 1    
     4    1   74 1    
     5    2    3 2    
     6    2    4 am   BACKBONE|DICT|INTERRES
     7    4    5 1    
     8    4   75 1    
     9    5    6 1    
    10    5   35 1    
    11    5   76 1    
    12    6    7 1    
    13    6   77 1    
    14    6   78 1    
    15    7    8 1    
    16    8    9 1    
    17    8   79 1    
    18    8   80 1    
    19    9   10 ar   
    20    9   14 ar   
    21   10   11 ar   
    22   10   81 1    
    23   11   12 ar   
    24   11   71 1    
    25   12   13 ar   
    26   12   82 1    
    27   13   14 ar   
    28   13   15 1    
    29   14   83 1    
    30   15   16 1    
    31   15   84 1    
    32   15   85 1    
    33   16   17 1    
    34   17   18 1    
    35   17   86 1    
    36   17   87 1    
    37   18   19 1    
    38   18   37 1    
    39   18   88 1    
    40   19   20 am   BACKBONE|DICT|INTERRES
    41   19   89 1    
    42   20   21 2    
    43   20   22 1    
    44   22   23 1    
    45   22   24 1    
    46   22   90 1    
    47   23   91 1    
    48   23   92 1    
    49   23   93 1    
    50   24   25 am   BACKBONE|DICT|INTERRES
    51   24   94 1    
    52   25   26 2    
    53   25   27 1    
    54   27   28 1    
    55   27   29 1    
    56   27   95 1    
    57   28   96 1    
    58   28   97 1    
    59   28   98 1    
    60   29   30 am   BACKBONE|DICT|INTERRES
    61   29   99 1    
    62   30   31 2    
    63   30   32 1    
    64   32   33 1    
    65   32   34 1    
    66   32  100 1    
    67   33  101 1    
    68   33  102 1    
    69   33  103 1    
    70   34   35 am   BACKBONE|DICT|INTERRES
    71   34  104 1    
    72   35   36 2    
    73   37   38 2    
    74   37   39 am   BACKBONE|DICT|INTERRES
    75   39   40 1    
    76   39  105 1    
    77   40   41 1    
    78   40   42 1    
    79   40  106 1    
    80   41  107 1    
    81   41  108 1    
    82   41  109 1    
    83   42   43 2    
    84   42   44 am   BACKBONE|DICT|INTERRES
    85   44   45 1    
    86   44  110 1    
    87   45   46 1    
    88   45   47 1    
    89   45  111 1    
    90   46  112 1    
    91   46  113 1    
    92   46  114 1    
    93   47   48 2    
    94   47   49 am   BACKBONE|DICT|INTERRES
    95   49   50 1    
    96   49  115 1    
    97   50   51 1    
    98   50   52 1    
    99   50  116 1    
   100   51  117 1    
   101   51  118 1    
   102   51  119 1    
   103   52   53 2    
   104   52   54 am   BACKBONE|DICT|INTERRES
   105   54   55 1    
   106   54  120 1    
   107   55   56 1    
   108   55   57 1    
   109   55  121 1    
   110   56  122 1    
   111   56  123 1    
   112   56  124 1    
   113   57   58 2    
   114   57   59 am   BACKBONE|DICT|INTERRES
   115   59   60 1    
   116   59  125 1    
   117   60   61 1    
   118   60   62 1    
   119   60  126 1    
   120   61  127 1    
   121   61  128 1    
   122   61  129 1    
   123   62   63 2    
   124   62   64 am   BACKBONE|DICT|INTERRES
   125   64   65 1    
   126   64  130 1    
   127   65   66 1    
   128   65   69 1    
   129   65  131 1    
   130   66   67 am   BACKBONE|DICT|INTERRES
   131   66   68 2    
   132   67  132 1    
   133   67  133 1    
   134   69   70 1    
   135   69  134 1    
   136   69  135 1    
   137   70   71 1    
   138   71  136 1    
   139   71  137 1    
@<TRIPOS>SUBSTRUCTURE
     1 UNK         1 GROUP             0       ****    0 ROOT    
