@<TRIPOS>MOLECULE
3R136
137   139    1
SMALL
USER_CHARGES


@<TRIPOS>ATOM
      1 CA         28.9164   18.7853    1.4917 C.3       0 UNK        -0.1979 
      2 C          28.7691   20.2267    1.0294 C.2       0 UNK         0.4864 
      3 O          28.6610   21.1245    1.8655 O.2       0 UNK        -0.5359 
      4 N          28.7595   20.4501   -0.2931 N.am      1 UNK        -0.4318 
      5 CA         28.6632   21.7343   -1.0100 C.3       1 UNK         0.0824 
      6 C6         29.8110   22.7303   -0.7016 C.3       12 UNK        -0.0944 
      7 S7         31.4694   22.1028   -1.1297 S.3       12 UNK        -0.2672 
      8 C8         32.1866   21.6902    0.4971 C.3       12 UNK         0.0333 
      9 C9         32.1938   22.8637    1.4706 C.ar      12 UNK        -0.0807 
     10 C10        32.9067   24.0285    1.1768 C.ar      12 UNK        -0.0894 
     11 C11        32.9218   25.1073    2.0668 C.ar      12 UNK        -0.0804 
     12 C12        32.2170   24.9988    3.2758 C.ar      12 UNK        -0.0824 
     13 C13        31.4982   23.8384    3.5847 C.ar      12 UNK        -0.0762 
     14 C14        31.4937   22.7769    2.6762 C.ar      12 UNK        -0.0782 
     15 C15        30.7436   23.6940    4.9057 C.3       12 UNK         0.0230 
     16 S16        29.7375   25.1448    5.3726 S.3       12 UNK        -0.2608 
     17 C17        28.6873   25.3920    3.9017 C.3       12 UNK        -0.0989 
     18 CA         28.9335   26.7895    3.2695 C.3       5 UNK         0.0716 
     19 N          28.9445   26.7277    1.8085 N.am      5 UNK        -0.4135 
     20 C          29.5872   27.5943    1.0136 C.2       4 UNK         0.5031 
     21 O          30.2807   28.5244    1.4207 O.2       4 UNK        -0.5229 
     22 CA         29.4196   27.3969   -0.5032 C.3       4 UNK         0.0329 
     23 CB         30.5578   26.5215   -1.0521 C.3       4 UNK        -0.2001 
     24 N          28.1208   26.8199   -0.8704 N.am      4 UNK        -0.4303 
     25 C          26.9514   27.4595   -0.7191 C.2       3 UNK         0.5044 
     26 O          26.8488   28.5976   -0.2639 O.2       3 UNK        -0.5152 
     27 CA         25.6771   26.6835   -1.0886 C.3       3 UNK         0.0319 
     28 CB         25.4281   26.7395   -2.6038 C.3       3 UNK        -0.2001 
     29 N          25.6753   25.2868   -0.6434 N.am      3 UNK        -0.4354 
     30 C          25.8167   24.8642    0.6202 C.2       2 UNK         0.4964 
     31 O          26.0728   25.6084    1.5666 O.2       2 UNK        -0.5047 
     32 CA         25.6783   23.3542    0.8699 C.3       2 UNK         0.0288 
     33 CB         24.3584   22.7792    0.3141 C.3       2 UNK        -0.2113 
     34 N          26.8451   22.6026    0.4001 N.am      2 UNK        -0.4145 
     35 C          27.3045   22.4489   -0.8490 C.2       1 UNK         0.5006 
     36 O          26.7267   22.8721   -1.8520 O.2       1 UNK        -0.5103 
     37 C          27.9169   27.8345    3.7761 C.2       5 UNK         0.5055 
     38 O          28.1828   28.5090    4.7715 O.2       5 UNK        -0.5220 
     39 N          26.7678   27.9415    3.0906 N.am      6 UNK        -0.4450 
     40 CA         25.7082   28.9140    3.3682 C.3       6 UNK         0.0367 
     41 CB         24.4417   28.5191    2.5920 C.3       6 UNK        -0.1929 
     42 C          26.1148   30.3615    3.0389 C.2       6 UNK         0.5070 
     43 O          25.6849   31.2811    3.7371 O.2       6 UNK        -0.5237 
     44 N          26.9256   30.5411    1.9872 N.am      7 UNK        -0.4739 
     45 CA         27.5265   31.8170    1.5917 C.3       7 UNK         0.0276 
     46 CB         28.2172   31.6343    0.2297 C.3       7 UNK        -0.1927 
     47 C          28.5358   32.3385    2.6309 C.2       7 UNK         0.5013 
     48 O          29.1171   31.5526    3.3826 O.2       7 UNK        -0.5193 
     49 N          28.7764   33.6564    2.6194 N.am      8 UNK        -0.4253 
     50 CA         29.7240   34.3569    3.4969 C.3       8 UNK         0.0242 
     51 CB         29.3283   35.8444    3.5684 C.3       8 UNK        -0.2000 
     52 C          31.1982   34.1534    3.0795 C.2       8 UNK         0.4948 
     53 O          31.9416   35.1264    2.9343 O.2       8 UNK        -0.5275 
     54 N          31.5899   32.8918    2.8799 N.am      9 UNK        -0.4246 
     55 CA         32.9466   32.4565    2.5621 C.3       9 UNK         0.0261 
     56 CB         32.8549   31.1896    1.6962 C.3       9 UNK        -0.1959 
     57 C          33.7366   32.1775    3.8500 C.2       9 UNK         0.5033 
     58 O          33.1407   31.9187    4.8997 O.2       9 UNK        -0.5390 
     59 N          35.0724   32.1874    3.7378 N.am      10 UNK        -0.4215 
     60 CA         36.0187   31.9490    4.8379 C.3       10 UNK         0.0240 
     61 CB         37.4512   32.1864    4.3321 C.3       10 UNK        -0.1982 
     62 C          35.9047   30.5591    5.4954 C.2       10 UNK         0.4970 
     63 O          36.2879   30.4102    6.6563 O.2       10 UNK        -0.4916 
     64 N          35.3719   29.5809    4.7541 N.am      11 UNK        -0.4279 
     65 CA         35.0041   28.2452    5.2424 C.3       11 UNK         0.1003 
     66 C          33.7643   28.2092    6.1871 C.2       11 UNK         0.5709 
     67 N          32.9907   29.2807    6.3267 N.am      11 UNK        -0.7358 
     68 O          33.5111   27.1872    6.8203 O.2       11 UNK        -0.4999 
     69 C69        34.8726   27.2399    4.0678 C.3       12 UNK        -0.0954 
     70 S70        33.6579   27.7640    2.8096 S.3       12 UNK        -0.2268 
     71 C71        33.7085   26.3544    1.6551 C.3       12 UNK         0.0203 
     72 H72        29.0083   18.0943    0.6540 H         1 UNK         0.0888 
     73 H73        29.8040   18.6822    2.1153 H         1 UNK         0.0888 
     74 H74        28.0490   18.4909    2.0818 H         1 UNK         0.0888 
     75 H75        28.8299   19.6484   -0.9046 H         1 UNK         0.3017 
     76 H76        28.7383   21.4742   -2.0673 H         1 UNK         0.0873 
     77 H77        29.6723   23.6364   -1.2930 H         1 UNK         0.0745 
     78 H78        29.7816   23.0502    0.3403 H         1 UNK         0.0745 
     79 H79        31.6461   20.8408    0.9153 H         1 UNK         0.0705 
     80 H80        33.2126   21.3509    0.3488 H         1 UNK         0.0705 
     81 H81        33.4463   24.0967    0.2417 H         1 UNK         0.1334 
     82 H82        32.2131   25.8121    3.9867 H         1 UNK         0.1417 
     83 H83        30.9438   21.8754    2.9103 H         1 UNK         0.1562 
     84 H84        31.4671   23.5033    5.6992 H         1 UNK         0.0748 
     85 H85        30.0849   22.8243    4.8762 H         1 UNK         0.0748 
     86 H86        28.9033   24.5994    3.1836 H         1 UNK         0.0940 
     87 H87        27.6414   25.2406    4.1778 H         1 UNK         0.0940 
     88 H88        29.9232   27.1411    3.5721 H         1 UNK         0.0703 
     89 H89        28.3506   26.0301    1.3846 H         1 UNK         0.3081 
     90 H90        29.4889   28.3795   -0.9753 H         1 UNK         0.0719 
     91 H91        30.6444   25.5802   -0.5092 H         1 UNK         0.0809 
     92 H92        30.4234   26.2971   -2.1103 H         1 UNK         0.0809 
     93 H93        31.5147   27.0346   -0.9511 H         1 UNK         0.0809 
     94 H94        28.1154   25.8893   -1.2610 H         1 UNK         0.2990 
     95 H95        24.8410   27.1791   -0.5914 H         1 UNK         0.0690 
     96 H96        24.4670   26.2955   -2.8639 H         1 UNK         0.0788 
     97 H97        26.2030   26.2119   -3.1616 H         1 UNK         0.0788 
     98 H98        25.4133   27.7708   -2.9598 H         1 UNK         0.0788 
     99 H99        25.5692   24.5757   -1.3582 H         1 UNK         0.2993 
    100 H100       25.6559   23.2224    1.9531 H         1 UNK         0.0949 
    101 H101       24.2353   21.7352    0.6025 H         1 UNK         0.0767 
    102 H102       23.5010   23.3260    0.7088 H         1 UNK         0.0767 
    103 H103       24.3016   22.8297   -0.7733 H         1 UNK         0.0767 
    104 H104       27.4278   22.1937    1.1314 H         1 UNK         0.3013 
    105 H105       26.5889   27.2780    2.3420 H         1 UNK         0.3121 
    106 H106       25.4830   28.8680    4.4358 H         1 UNK         0.0774 
    107 H107       24.6054   28.5477    1.5143 H         1 UNK         0.0815 
    108 H108       23.6196   29.2002    2.8154 H         1 UNK         0.0815 
    109 H109       24.1116   27.5136    2.8541 H         1 UNK         0.0815 
    110 H110       27.1776   29.7313    1.4310 H         1 UNK         0.2987 
    111 H111       26.7236   32.5502    1.4895 H         1 UNK         0.0949 
    112 H112       29.0147   30.8914    0.2823 H         1 UNK         0.0806 
    113 H113       27.5095   31.3102   -0.5336 H         1 UNK         0.0806 
    114 H114       28.6625   32.5671   -0.1184 H         1 UNK         0.0806 
    115 H115       28.2954   34.2285    1.9400 H         1 UNK         0.3010 
    116 H116       29.6269   33.9437    4.5034 H         1 UNK         0.0829 
    117 H117       28.3036   35.9668    3.9199 H         1 UNK         0.0813 
    118 H118       29.9714   36.3880    4.2619 H         1 UNK         0.0813 
    119 H119       29.4115   36.3315    2.5960 H         1 UNK         0.0813 
    120 H120       30.9128   32.1603    3.0825 H         1 UNK         0.3038 
    121 H121       33.4594   33.2365    1.9952 H         1 UNK         0.0769 
    122 H122       32.3190   30.3908    2.2112 H         1 UNK         0.0811 
    123 H123       33.8432   30.8083    1.4369 H         1 UNK         0.0811 
    124 H124       32.3295   31.3867    0.7616 H         1 UNK         0.0811 
    125 H125       35.4783   32.3971    2.8364 H         1 UNK         0.3204 
    126 H126       35.8049   32.6861    5.6148 H         1 UNK         0.0748 
    127 H127       38.1774   32.0464    5.1343 H         1 UNK         0.0771 
    128 H128       37.7159   31.4964    3.5297 H         1 UNK         0.0771 
    129 H129       37.5784   33.2028    3.9588 H         1 UNK         0.0771 
    130 H130       35.0741   29.7934    3.8143 H         1 UNK         0.2980 
    131 H131       35.8371   27.8977    5.8563 H         1 UNK         0.0545 
    132 H132       33.1698   30.1337    5.8073 H         1 UNK         0.3459 
    133 H133       32.1978   29.2324    6.9453 H         1 UNK         0.3459 
    134 H134       35.8398   27.1294    3.5753 H         1 UNK         0.0616 
    135 H135       34.6122   26.2456    4.4343 H         1 UNK         0.0616 
    136 H136       33.3160   26.7043    0.6999 H         1 UNK         0.0634 
    137 H137       34.7497   26.0816    1.4778 H         1 UNK         0.0634 
@<TRIPOS>BOND
     1    1    2 1    
     2    1   72 1    
     3    1   73 1    
     4    1   74 1    
     5    2    3 2    
     6    2    4 am   BACKBONE|DICT|INTERRES
     7    4    5 1    
     8    4   75 1    
     9    5    6 1    
    10    5   35 1    
    11    5   76 1    
    12    6    7 1    
    13    6   77 1    
    14    6   78 1    
    15    7    8 1    
    16    8    9 1    
    17    8   79 1    
    18    8   80 1    
    19    9   10 ar   
    20    9   14 ar   
    21   10   11 ar   
    22   10   81 1    
    23   11   12 ar   
    24   11   71 1    
    25   12   13 ar   
    26   12   82 1    
    27   13   14 ar   
    28   13   15 1    
    29   14   83 1    
    30   15   16 1    
    31   15   84 1    
    32   15   85 1    
    33   16   17 1    
    34   17   18 1    
    35   17   86 1    
    36   17   87 1    
    37   18   19 1    
    38   18   37 1    
    39   18   88 1    
    40   19   20 am   BACKBONE|DICT|INTERRES
    41   19   89 1    
    42   20   21 2    
    43   20   22 1    
    44   22   23 1    
    45   22   24 1    
    46   22   90 1    
    47   23   91 1    
    48   23   92 1    
    49   23   93 1    
    50   24   25 am   BACKBONE|DICT|INTERRES
    51   24   94 1    
    52   25   26 2    
    53   25   27 1    
    54   27   28 1    
    55   27   29 1    
    56   27   95 1    
    57   28   96 1    
    58   28   97 1    
    59   28   98 1    
    60   29   30 am   BACKBONE|DICT|INTERRES
    61   29   99 1    
    62   30   31 2    
    63   30   32 1    
    64   32   33 1    
    65   32   34 1    
    66   32  100 1    
    67   33  101 1    
    68   33  102 1    
    69   33  103 1    
    70   34   35 am   BACKBONE|DICT|INTERRES
    71   34  104 1    
    72   35   36 2    
    73   37   38 2    
    74   37   39 am   BACKBONE|DICT|INTERRES
    75   39   40 1    
    76   39  105 1    
    77   40   41 1    
    78   40   42 1    
    79   40  106 1    
    80   41  107 1    
    81   41  108 1    
    82   41  109 1    
    83   42   43 2    
    84   42   44 am   BACKBONE|DICT|INTERRES
    85   44   45 1    
    86   44  110 1    
    87   45   46 1    
    88   45   47 1    
    89   45  111 1    
    90   46  112 1    
    91   46  113 1    
    92   46  114 1    
    93   47   48 2    
    94   47   49 am   BACKBONE|DICT|INTERRES
    95   49   50 1    
    96   49  115 1    
    97   50   51 1    
    98   50   52 1    
    99   50  116 1    
   100   51  117 1    
   101   51  118 1    
   102   51  119 1    
   103   52   53 2    
   104   52   54 am   BACKBONE|DICT|INTERRES
   105   54   55 1    
   106   54  120 1    
   107   55   56 1    
   108   55   57 1    
   109   55  121 1    
   110   56  122 1    
   111   56  123 1    
   112   56  124 1    
   113   57   58 2    
   114   57   59 am   BACKBONE|DICT|INTERRES
   115   59   60 1    
   116   59  125 1    
   117   60   61 1    
   118   60   62 1    
   119   60  126 1    
   120   61  127 1    
   121   61  128 1    
   122   61  129 1    
   123   62   63 2    
   124   62   64 am   BACKBONE|DICT|INTERRES
   125   64   65 1    
   126   64  130 1    
   127   65   66 1    
   128   65   69 1    
   129   65  131 1    
   130   66   67 am   BACKBONE|DICT|INTERRES
   131   66   68 2    
   132   67  132 1    
   133   67  133 1    
   134   69   70 1    
   135   69  134 1    
   136   69  135 1    
   137   70   71 1    
   138   71  136 1    
   139   71  137 1    
@<TRIPOS>SUBSTRUCTURE
     1 UNK         1 GROUP             0       ****    0 ROOT    
