@<TRIPOS>MOLECULE
3R136
137   139    1
SMALL
USER_CHARGES


@<TRIPOS>ATOM
      1 CA         30.7570   29.8244   -2.8819 C.3       0 UNK        -0.1979 
      2 C          29.9363   28.8841   -2.0124 C.2       0 UNK         0.4864 
      3 O          29.4029   27.8993   -2.5257 O.2       0 UNK        -0.5359 
      4 N          29.8108   29.2088   -0.7135 N.am      1 UNK        -0.4318 
      5 CA         29.1203   28.4592    0.3552 C.3       1 UNK         0.0824 
      6 C6         30.0229   27.4369    1.1018 C.3       12 UNK        -0.0944 
      7 S7         30.9433   26.2363    0.0854 S.3       12 UNK        -0.2672 
      8 C8         32.4072   25.9570    1.1351 C.3       12 UNK         0.0333 
      9 C9         32.0448   25.2992    2.4605 C.ar      12 UNK        -0.0807 
     10 C10        31.9226   26.0665    3.6251 C.ar      12 UNK        -0.0894 
     11 C11        31.5752   25.4650    4.8386 C.ar      12 UNK        -0.0804 
     12 C12        31.3546   24.0869    4.8831 C.ar      12 UNK        -0.0824 
     13 C13        31.4468   23.3136    3.7226 C.ar      12 UNK        -0.0762 
     14 C14        31.8110   23.9214    2.5171 C.ar      12 UNK        -0.0782 
     15 C15        31.0908   21.8339    3.7667 C.3       12 UNK         0.0230 
     16 S16        29.4424   21.5031    3.0522 S.3       12 UNK        -0.2608 
     17 C17        28.3720   22.6777    3.9559 C.3       12 UNK        -0.0989 
     18 CA         28.1032   23.9932    3.1627 C.3       5 UNK         0.0716 
     19 N          27.1996   23.7929    2.0293 N.am      5 UNK        -0.4135 
     20 C          27.5750   23.5664    0.7651 C.2       4 UNK         0.5031 
     21 O          28.7457   23.4583    0.3986 O.2       4 UNK        -0.5229 
     22 CA         26.4657   23.4457   -0.2893 C.3       4 UNK         0.0329 
     23 CB         25.0314   23.6415    0.2484 C.3       4 UNK        -0.2001 
     24 N          26.7353   24.4458   -1.3122 N.am      4 UNK        -0.4303 
     25 C          26.5923   24.2903   -2.6332 C.2       3 UNK         0.5044 
     26 O          26.2193   23.2409   -3.1618 O.2       3 UNK        -0.5152 
     27 CA         26.9174   25.5215   -3.5091 C.3       3 UNK         0.0319 
     28 CB         26.1809   25.5088   -4.8658 C.3       3 UNK        -0.2001 
     29 N          26.7113   26.7948   -2.8052 N.am      3 UNK        -0.4354 
     30 C          25.5625   27.2460   -2.2709 C.2       2 UNK         0.4964 
     31 O          24.4698   26.7044   -2.4461 O.2       2 UNK        -0.5047 
     32 CA         25.6449   28.4926   -1.3638 C.3       2 UNK         0.0288 
     33 CB         24.5889   28.4626   -0.2380 C.3       2 UNK        -0.2113 
     34 N          26.9818   28.7400   -0.8057 N.am      2 UNK        -0.4145 
     35 C          27.7113   27.9363   -0.0120 C.2       1 UNK         0.5006 
     36 O          27.3122   26.8524    0.4224 O.2       1 UNK        -0.5103 
     37 C          27.5588   25.1358    4.0447 C.2       5 UNK         0.5055 
     38 O          27.4941   24.9885    5.2672 O.2       5 UNK        -0.5220 
     39 N          27.1488   26.2537    3.4231 N.am      6 UNK        -0.4450 
     40 CA         26.7580   27.4751    4.1388 C.3       6 UNK         0.0367 
     41 CB         25.9113   28.3694    3.2201 C.3       6 UNK        -0.1929 
     42 C          27.9940   28.2370    4.6496 C.2       6 UNK         0.5070 
     43 O          29.0841   28.0768    4.1004 O.2       6 UNK        -0.5237 
     44 N          27.8028   29.0692    5.6807 N.am      7 UNK        -0.4739 
     45 CA         28.8505   29.8436    6.3567 C.3       7 UNK         0.0276 
     46 CB         28.3171   30.3062    7.7255 C.3       7 UNK        -0.1927 
     47 C          29.3889   31.0159    5.5080 C.2       7 UNK         0.5013 
     48 O          29.1480   32.1786    5.8390 O.2       7 UNK        -0.5193 
     49 N          30.1024   30.6882    4.4278 N.am      8 UNK        -0.4253 
     50 CA         30.7639   31.6109    3.5100 C.3       8 UNK         0.0242 
     51 CB         29.7341   32.1802    2.5120 C.3       8 UNK        -0.2000 
     52 C          31.9133   30.8789    2.7998 C.2       8 UNK         0.4948 
     53 O          32.1350   29.6909    3.0529 O.2       8 UNK        -0.5275 
     54 N          32.6171   31.5999    1.9140 N.am      9 UNK        -0.4246 
     55 CA         33.7358   31.1421    1.0804 C.3       9 UNK         0.0261 
     56 CB         33.2486   30.1518   -0.0019 C.3       9 UNK        -0.1959 
     57 C          34.9077   30.6069    1.9221 C.2       9 UNK         0.5033 
     58 O          35.7299   31.4006    2.3818 O.2       9 UNK        -0.5390 
     59 N          34.9584   29.2820    2.1109 N.am      10 UNK        -0.4215 
     60 CA         35.9253   28.5922    2.9665 C.3       10 UNK         0.0240 
     61 CB         35.8666   27.0823    2.6809 C.3       10 UNK        -0.1982 
     62 C          35.7003   28.8614    4.4653 C.2       10 UNK         0.4970 
     63 O          36.6658   28.8214    5.2292 O.2       10 UNK        -0.4916 
     64 N          34.4469   29.1227    4.8534 N.am      11 UNK        -0.4279 
     65 CA         34.0419   29.4587    6.2221 C.3       11 UNK         0.1003 
     66 C          33.9180   30.9933    6.4124 C.2       11 UNK         0.5709 
     67 N          34.0630   31.4741    7.6397 N.am      11 UNK        -0.7358 
     68 O          33.6640   31.7499    5.4775 O.2       11 UNK        -0.4999 
     69 C69        32.7216   28.7421    6.5940 C.3       12 UNK        -0.0954 
     70 S70        32.9518   26.9379    6.7472 S.3       12 UNK        -0.2268 
     71 C71        31.3785   26.3031    6.0927 C.3       12 UNK         0.0203 
     72 H72        30.8518   30.8134   -2.4345 H         1 UNK         0.0888 
     73 H73        31.7556   29.4159   -3.0346 H         1 UNK         0.0888 
     74 H74        30.2856   29.9440   -3.8571 H         1 UNK         0.0888 
     75 H75        30.2648   30.0534   -0.3978 H         1 UNK         0.3017 
     76 H76        28.8926   29.2181    1.1045 H         1 UNK         0.0873 
     77 H77        30.7516   28.0011    1.6815 H         1 UNK         0.0745 
     78 H78        29.4560   26.8733    1.8425 H         1 UNK         0.0745 
     79 H79        33.1134   25.3249    0.5950 H         1 UNK         0.0705 
     80 H80        32.9161   26.9062    1.3046 H         1 UNK         0.0705 
     81 H81        32.0769   27.1359    3.5893 H         1 UNK         0.1334 
     82 H82        31.0666   23.6214    5.8157 H         1 UNK         0.1417 
     83 H83        31.8663   23.3298    1.6131 H         1 UNK         0.1562 
     84 H84        31.1158   21.4613    4.7920 H         1 UNK         0.0748 
     85 H85        31.8385   21.2616    3.2157 H         1 UNK         0.0748 
     86 H86        28.8377   22.8780    4.9215 H         1 UNK         0.0940 
     87 H87        27.4292   22.1798    4.1878 H         1 UNK         0.0940 
     88 H88        29.0542   24.3739    2.7874 H         1 UNK         0.0703 
     89 H89        26.2147   23.8885    2.2311 H         1 UNK         0.3081 
     90 H90        26.5471   22.4439   -0.7159 H         1 UNK         0.0719 
     91 H91        24.8894   24.6335    0.6804 H         1 UNK         0.0809 
     92 H92        24.3002   23.5307   -0.5528 H         1 UNK         0.0809 
     93 H93        24.7831   22.8977    1.0066 H         1 UNK         0.0809 
     94 H94        27.0810   25.3324   -0.9570 H         1 UNK         0.2990 
     95 H95        27.9874   25.4666   -3.7150 H         1 UNK         0.0690 
     96 H96        26.4311   26.3870   -5.4608 H         1 UNK         0.0788 
     97 H97        25.0982   25.4846   -4.7401 H         1 UNK         0.0788 
     98 H98        26.4581   24.6321   -5.4522 H         1 UNK         0.0788 
     99 H99        27.5688   27.3085   -2.6103 H         1 UNK         0.2993 
    100 H100       25.4200   29.3446   -2.0072 H         1 UNK         0.0949 
    101 H101       24.6887   27.5711    0.3818 H         1 UNK         0.0767 
    102 H102       24.6704   29.3357    0.4093 H         1 UNK         0.0767 
    103 H103       23.5782   28.4593   -0.6480 H         1 UNK         0.0767 
    104 H104       27.4187   29.5987   -1.1109 H         1 UNK         0.3013 
    105 H105       27.2557   26.3289    2.4160 H         1 UNK         0.3121 
    106 H106       26.1452   27.1931    4.9979 H         1 UNK         0.0774 
    107 H107       26.4977   28.7833    2.4017 H         1 UNK         0.0815 
    108 H108       25.4964   29.2129    3.7729 H         1 UNK         0.0815 
    109 H109       25.0718   27.8201    2.7946 H         1 UNK         0.0815 
    110 H110       26.8673   29.1755    6.0463 H         1 UNK         0.2987 
    111 H111       29.6919   29.1769    6.5501 H         1 UNK         0.0949 
    112 H112       27.4465   30.9553    7.6228 H         1 UNK         0.0806 
    113 H113       28.0326   29.4580    8.3486 H         1 UNK         0.0806 
    114 H114       29.0780   30.8651    8.2722 H         1 UNK         0.0806 
    115 H115       30.2234   29.7019    4.2040 H         1 UNK         0.3010 
    116 H116       31.2037   32.4264    4.0882 H         1 UNK         0.0829 
    117 H117       28.9259   32.6975    3.0294 H         1 UNK         0.0813 
    118 H118       30.1865   32.9040    1.8338 H         1 UNK         0.0813 
    119 H119       29.2865   31.3952    1.9040 H         1 UNK         0.0813 
    120 H120       32.3901   32.5801    1.8205 H         1 UNK         0.3038 
    121 H121       34.1159   32.0238    0.5617 H         1 UNK         0.0769 
    122 H122       32.7150   29.2970    0.4140 H         1 UNK         0.0811 
    123 H123       34.0833   29.7676   -0.5901 H         1 UNK         0.0811 
    124 H124       32.5776   30.6517   -0.6981 H         1 UNK         0.0811 
    125 H125       34.2060   28.7285    1.7298 H         1 UNK         0.3204 
    126 H126       36.9234   28.9533    2.7095 H         1 UNK         0.0748 
    127 H127       36.6230   26.5488    3.2583 H         1 UNK         0.0771 
    128 H128       34.8982   26.6571    2.9476 H         1 UNK         0.0771 
    129 H129       36.0526   26.8667    1.6285 H         1 UNK         0.0771 
    130 H130       33.7183   29.2109    4.1520 H         1 UNK         0.2980 
    131 H131       34.8116   29.1172    6.9173 H         1 UNK         0.0545 
    132 H132       34.2639   30.8673    8.4193 H         1 UNK         0.3459 
    133 H133       33.9763   32.4673    7.7878 H         1 UNK         0.3459 
    134 H134       31.9634   28.9612    5.8416 H         1 UNK         0.0616 
    135 H135       32.3301   29.1027    7.5469 H         1 UNK         0.0616 
    136 H136       30.6899   27.1166    5.8760 H         1 UNK         0.0634 
    137 H137       30.8974   25.7142    6.8749 H         1 UNK         0.0634 
@<TRIPOS>BOND
     1    1    2 1    
     2    1   72 1    
     3    1   73 1    
     4    1   74 1    
     5    2    3 2    
     6    2    4 am   BACKBONE|DICT|INTERRES
     7    4    5 1    
     8    4   75 1    
     9    5    6 1    
    10    5   35 1    
    11    5   76 1    
    12    6    7 1    
    13    6   77 1    
    14    6   78 1    
    15    7    8 1    
    16    8    9 1    
    17    8   79 1    
    18    8   80 1    
    19    9   10 ar   
    20    9   14 ar   
    21   10   11 ar   
    22   10   81 1    
    23   11   12 ar   
    24   11   71 1    
    25   12   13 ar   
    26   12   82 1    
    27   13   14 ar   
    28   13   15 1    
    29   14   83 1    
    30   15   16 1    
    31   15   84 1    
    32   15   85 1    
    33   16   17 1    
    34   17   18 1    
    35   17   86 1    
    36   17   87 1    
    37   18   19 1    
    38   18   37 1    
    39   18   88 1    
    40   19   20 am   BACKBONE|DICT|INTERRES
    41   19   89 1    
    42   20   21 2    
    43   20   22 1    
    44   22   23 1    
    45   22   24 1    
    46   22   90 1    
    47   23   91 1    
    48   23   92 1    
    49   23   93 1    
    50   24   25 am   BACKBONE|DICT|INTERRES
    51   24   94 1    
    52   25   26 2    
    53   25   27 1    
    54   27   28 1    
    55   27   29 1    
    56   27   95 1    
    57   28   96 1    
    58   28   97 1    
    59   28   98 1    
    60   29   30 am   BACKBONE|DICT|INTERRES
    61   29   99 1    
    62   30   31 2    
    63   30   32 1    
    64   32   33 1    
    65   32   34 1    
    66   32  100 1    
    67   33  101 1    
    68   33  102 1    
    69   33  103 1    
    70   34   35 am   BACKBONE|DICT|INTERRES
    71   34  104 1    
    72   35   36 2    
    73   37   38 2    
    74   37   39 am   BACKBONE|DICT|INTERRES
    75   39   40 1    
    76   39  105 1    
    77   40   41 1    
    78   40   42 1    
    79   40  106 1    
    80   41  107 1    
    81   41  108 1    
    82   41  109 1    
    83   42   43 2    
    84   42   44 am   BACKBONE|DICT|INTERRES
    85   44   45 1    
    86   44  110 1    
    87   45   46 1    
    88   45   47 1    
    89   45  111 1    
    90   46  112 1    
    91   46  113 1    
    92   46  114 1    
    93   47   48 2    
    94   47   49 am   BACKBONE|DICT|INTERRES
    95   49   50 1    
    96   49  115 1    
    97   50   51 1    
    98   50   52 1    
    99   50  116 1    
   100   51  117 1    
   101   51  118 1    
   102   51  119 1    
   103   52   53 2    
   104   52   54 am   BACKBONE|DICT|INTERRES
   105   54   55 1    
   106   54  120 1    
   107   55   56 1    
   108   55   57 1    
   109   55  121 1    
   110   56  122 1    
   111   56  123 1    
   112   56  124 1    
   113   57   58 2    
   114   57   59 am   BACKBONE|DICT|INTERRES
   115   59   60 1    
   116   59  125 1    
   117   60   61 1    
   118   60   62 1    
   119   60  126 1    
   120   61  127 1    
   121   61  128 1    
   122   61  129 1    
   123   62   63 2    
   124   62   64 am   BACKBONE|DICT|INTERRES
   125   64   65 1    
   126   64  130 1    
   127   65   66 1    
   128   65   69 1    
   129   65  131 1    
   130   66   67 am   BACKBONE|DICT|INTERRES
   131   66   68 2    
   132   67  132 1    
   133   67  133 1    
   134   69   70 1    
   135   69  134 1    
   136   69  135 1    
   137   70   71 1    
   138   71  136 1    
   139   71  137 1    
@<TRIPOS>SUBSTRUCTURE
     1 UNK         1 GROUP             0       ****    0 ROOT    
