@<TRIPOS>MOLECULE
3R136
137   139    1
SMALL
USER_CHARGES


@<TRIPOS>ATOM
      1 CA         27.7982   17.7911    0.7779 C.3       0 UNK        -0.1979 
      2 C          27.6593   19.1782    0.1677 C.2       0 UNK         0.4864 
      3 O          26.7637   19.3998   -0.6495 O.2       0 UNK        -0.5359 
      4 N          28.5429   20.1083    0.5508 N.am      1 UNK        -0.4318 
      5 CA         28.5341   21.5064    0.1057 C.3       1 UNK         0.0824 
      6 C6         29.8727   22.2219    0.4163 C.3       12 UNK        -0.0944 
      7 S7         31.2836   21.4394   -0.4309 S.3       12 UNK        -0.2672 
      8 C8         32.5648   21.5008    0.8668 C.3       12 UNK         0.0333 
      9 C9         33.0131   22.9181    1.2175 C.ar      12 UNK        -0.0807 
     10 C10        33.1907   23.2829    2.5578 C.ar      12 UNK        -0.0894 
     11 C11        33.6578   24.5586    2.8911 C.ar      12 UNK        -0.0804 
     12 C12        33.9366   25.4754    1.8762 C.ar      12 UNK        -0.0824 
     13 C13        33.7404   25.1354    0.5356 C.ar      12 UNK        -0.0762 
     14 C14        33.2941   23.8515    0.2119 C.ar      12 UNK        -0.0782 
     15 C15        34.0234   26.1513   -0.5622 C.3       12 UNK         0.0230 
     16 S16        32.4955   26.8945   -1.2230 S.3       12 UNK        -0.2608 
     17 C17        31.8559   27.8167    0.2174 C.3       12 UNK        -0.0989 
     18 CA         30.3666   27.4881    0.5126 C.3       5 UNK         0.0716 
     19 N          30.0288   27.5108    1.9392 N.am      5 UNK        -0.4135 
     20 C          30.1080   28.5564    2.7757 C.2       4 UNK         0.5031 
     21 O          30.5992   29.6489    2.4790 O.2       4 UNK        -0.5229 
     22 CA         29.5425   28.3486    4.1971 C.3       4 UNK         0.0329 
     23 CB         29.1199   29.6731    4.8614 C.3       4 UNK        -0.2001 
     24 N          28.4522   27.3692    4.2777 N.am      4 UNK        -0.4303 
     25 C          27.2656   27.4295    3.6576 C.2       3 UNK         0.5044 
     26 O          26.9166   28.3392    2.9036 O.2       3 UNK        -0.5152 
     27 CA         26.3179   26.2445    3.9040 C.3       3 UNK         0.0319 
     28 CB         25.0833   26.7065    4.6947 C.3       3 UNK        -0.2001 
     29 N          25.8786   25.5619    2.6806 N.am      3 UNK        -0.4354 
     30 C          26.6504   25.1798    1.6530 C.2       2 UNK         0.4964 
     31 O          27.8414   25.4781    1.5191 O.2       2 UNK        -0.5047 
     32 CA         25.9690   24.3243    0.5721 C.3       2 UNK         0.0288 
     33 CB         25.4640   25.2070   -0.5792 C.3       2 UNK        -0.2113 
     34 N          26.9024   23.3292    0.0412 N.am      2 UNK        -0.4145 
     35 C          27.3671   22.2860    0.7426 C.2       1 UNK         0.5006 
     36 O          26.9480   21.9692    1.8606 O.2       1 UNK        -0.5103 
     37 C          29.3621   28.3390   -0.2932 C.2       5 UNK         0.5055 
     38 O          29.7582   29.2352   -1.0388 O.2       5 UNK        -0.5220 
     39 N          28.0671   28.0512   -0.0925 N.am      6 UNK        -0.4450 
     40 CA         26.9071   28.7499   -0.6619 C.3       6 UNK         0.0367 
     41 CB         26.8432   28.5628   -2.1941 C.3       6 UNK        -0.1929 
     42 C          26.8516   30.2306   -0.2357 C.2       6 UNK         0.5070 
     43 O          26.7469   31.1189   -1.0834 O.2       6 UNK        -0.5237 
     44 N          26.9269   30.4568    1.0836 N.am      7 UNK        -0.4739 
     45 CA         26.8767   31.7525    1.7723 C.3       7 UNK         0.0276 
     46 CB         25.5002   32.4255    1.5807 C.3       7 UNK        -0.1927 
     47 C          28.0540   32.6925    1.4394 C.2       7 UNK         0.5013 
     48 O          27.8996   33.9124    1.5185 O.2       7 UNK        -0.5193 
     49 N          29.2216   32.1207    1.1112 N.am      8 UNK        -0.4253 
     50 CA         30.4626   32.8589    0.8469 C.3       8 UNK         0.0242 
     51 CB         31.3563   32.0219   -0.0809 C.3       8 UNK        -0.2000 
     52 C          31.2300   33.2394    2.1278 C.2       8 UNK         0.4948 
     53 O          32.2373   33.9410    2.0288 O.2       8 UNK        -0.5275 
     54 N          30.7611   32.7601    3.2913 N.am      9 UNK        -0.4246 
     55 CA         31.3445   32.9212    4.6301 C.3       9 UNK         0.0261 
     56 CB         31.4371   34.4090    5.0347 C.3       9 UNK        -0.1959 
     57 C          32.6782   32.1655    4.8037 C.2       9 UNK         0.5033 
     58 O          33.4971   32.5625    5.6345 O.2       9 UNK        -0.5390 
     59 N          32.8732   31.0810    4.0375 N.am      10 UNK        -0.4215 
     60 CA         34.0920   30.2645    4.0630 C.3       10 UNK         0.0240 
     61 CB         34.1460   29.4110    2.7884 C.3       10 UNK        -0.1982 
     62 C          34.1979   29.3576    5.3023 C.2       10 UNK         0.4970 
     63 O          35.3101   29.0512    5.7327 O.2       10 UNK        -0.4916 
     64 N          33.0467   28.9341    5.8327 N.am      11 UNK        -0.4279 
     65 CA         32.9069   27.9881    6.9496 C.3       11 UNK         0.1003 
     66 C          31.5445   28.1395    7.6839 C.2       11 UNK         0.5709 
     67 N          30.9585   29.3312    7.7144 N.am      11 UNK        -0.7358 
     68 O          31.0104   27.1836    8.2408 O.2       11 UNK        -0.4999 
     69 C69        33.2843   26.5238    6.5683 C.3       12 UNK        -0.0954 
     70 S70        32.5153   25.9064    5.0275 S.3       12 UNK        -0.2268 
     71 C71        33.9022   24.9492    4.3399 C.3       12 UNK         0.0203 
     72 H72        26.8919   17.5290    1.3232 H         1 UNK         0.0888 
     73 H73        27.9517   17.0497   -0.0059 H         1 UNK         0.0888 
     74 H74        28.6388   17.7321    1.4692 H         1 UNK         0.0888 
     75 H75        29.2490   19.8737    1.2329 H         1 UNK         0.3017 
     76 H76        28.3864   21.5087   -0.9768 H         1 UNK         0.0873 
     77 H77        30.0544   22.2405    1.4930 H         1 UNK         0.0745 
     78 H78        29.8407   23.2664    0.0985 H         1 UNK         0.0745 
     79 H79        33.4346   20.9402    0.5221 H         1 UNK         0.0705 
     80 H80        32.1946   20.9796    1.7511 H         1 UNK         0.0705 
     81 H81        32.9854   22.5682    3.3433 H         1 UNK         0.1334 
     82 H82        34.3040   26.4584    2.1351 H         1 UNK         0.1417 
     83 H83        33.1616   23.5818   -0.8271 H         1 UNK         0.1562 
     84 H84        34.5594   25.6638   -1.3779 H         1 UNK         0.0748 
     85 H85        34.6802   26.9432   -0.1983 H         1 UNK         0.0748 
     86 H86        32.0268   28.8831    0.0734 H         1 UNK         0.0940 
     87 H87        32.4545   27.5517    1.0828 H         1 UNK         0.0940 
     88 H88        30.1891   26.4534    0.2131 H         1 UNK         0.0703 
     89 H89        29.5662   26.6740    2.2731 H         1 UNK         0.3081 
     90 H90        30.3588   27.9320    4.7857 H         1 UNK         0.0719 
     91 H91        28.6881   29.5034    5.8476 H         1 UNK         0.0809 
     92 H92        28.3849   30.2112    4.2640 H         1 UNK         0.0809 
     93 H93        29.9789   30.3250    4.9968 H         1 UNK         0.0809 
     94 H94        28.6397   26.5638    4.8595 H         1 UNK         0.2990 
     95 H95        26.8428   25.4992    4.5049 H         1 UNK         0.0690 
     96 H96        24.4460   25.8655    4.9687 H         1 UNK         0.0788 
     97 H97        24.4810   27.4130    4.1215 H         1 UNK         0.0788 
     98 H98        25.3748   27.2045    5.6207 H         1 UNK         0.0788 
     99 H99        24.9048   25.2958    2.6610 H         1 UNK         0.2993 
    100 H100       25.1198   23.7986    1.0147 H         1 UNK         0.0949 
    101 H101       26.2862   25.7162   -1.0811 H         1 UNK         0.0767 
    102 H102       24.9305   24.6176   -1.3253 H         1 UNK         0.0767 
    103 H103       24.7742   25.9708   -0.2174 H         1 UNK         0.0767 
    104 H104       27.3209   23.5400   -0.8528 H         1 UNK         0.3013 
    105 H105       27.8564   27.3091    0.5671 H         1 UNK         0.3121 
    106 H106       26.0227   28.2759   -0.2338 H         1 UNK         0.0774 
    107 H107       25.9133   28.9677   -2.5951 H         1 UNK         0.0815 
    108 H108       27.6620   29.0750   -2.7003 H         1 UNK         0.0815 
    109 H109       26.8862   27.5115   -2.4753 H         1 UNK         0.0815 
    110 H110       26.9895   29.6448    1.7005 H         1 UNK         0.2987 
    111 H111       26.9738   31.5254    2.8343 H         1 UNK         0.0949 
    112 H112       25.3485   32.7531    0.5518 H         1 UNK         0.0806 
    113 H113       24.6876   31.7474    1.8411 H         1 UNK         0.0806 
    114 H114       25.4013   33.3050    2.2181 H         1 UNK         0.0806 
    115 H115       29.2811   31.1108    1.0748 H         1 UNK         0.3010 
    116 H116       30.2169   33.7883    0.3287 H         1 UNK         0.0829 
    117 H117       30.8377   31.7583   -1.0028 H         1 UNK         0.0813 
    118 H118       32.2562   32.5708   -0.3615 H         1 UNK         0.0813 
    119 H119       31.6756   31.1000    0.4030 H         1 UNK         0.0813 
    120 H120       29.9483   32.1635    3.2347 H         1 UNK         0.3038 
    121 H121       30.6445   32.4575    5.3246 H         1 UNK         0.0769 
    122 H122       32.1983   34.9409    4.4636 H         1 UNK         0.0811 
    123 H123       30.4864   34.9211    4.8868 H         1 UNK         0.0811 
    124 H124       31.6975   34.5109    6.0889 H         1 UNK         0.0811 
    125 H125       32.1506   30.8091    3.3784 H         1 UNK         0.3204 
    126 H126       34.9546   30.9345    4.0635 H         1 UNK         0.0748 
    127 H127       35.0851   28.8594    2.7264 H         1 UNK         0.0771 
    128 H128       33.3368   28.6825    2.7776 H         1 UNK         0.0771 
    129 H129       34.0657   30.0224    1.8892 H         1 UNK         0.0771 
    130 H130       32.1817   29.2417    5.4177 H         1 UNK         0.2980 
    131 H131       33.6263   28.2976    7.7097 H         1 UNK         0.0545 
    132 H132       31.4262   30.1492    7.3611 H         1 UNK         0.3459 
    133 H133       30.0816   29.4257    8.2018 H         1 UNK         0.3459 
    134 H134       34.3682   26.4714    6.4600 H         1 UNK         0.0616 
    135 H135       33.0514   25.8292    7.3769 H         1 UNK         0.0616 
    136 H136       34.0659   24.0630    4.9549 H         1 UNK         0.0634 
    137 H137       34.8184   25.5391    4.3977 H         1 UNK         0.0634 
@<TRIPOS>BOND
     1    1    2 1    
     2    1   72 1    
     3    1   73 1    
     4    1   74 1    
     5    2    3 2    
     6    2    4 am   BACKBONE|DICT|INTERRES
     7    4    5 1    
     8    4   75 1    
     9    5    6 1    
    10    5   35 1    
    11    5   76 1    
    12    6    7 1    
    13    6   77 1    
    14    6   78 1    
    15    7    8 1    
    16    8    9 1    
    17    8   79 1    
    18    8   80 1    
    19    9   10 ar   
    20    9   14 ar   
    21   10   11 ar   
    22   10   81 1    
    23   11   12 ar   
    24   11   71 1    
    25   12   13 ar   
    26   12   82 1    
    27   13   14 ar   
    28   13   15 1    
    29   14   83 1    
    30   15   16 1    
    31   15   84 1    
    32   15   85 1    
    33   16   17 1    
    34   17   18 1    
    35   17   86 1    
    36   17   87 1    
    37   18   19 1    
    38   18   37 1    
    39   18   88 1    
    40   19   20 am   BACKBONE|DICT|INTERRES
    41   19   89 1    
    42   20   21 2    
    43   20   22 1    
    44   22   23 1    
    45   22   24 1    
    46   22   90 1    
    47   23   91 1    
    48   23   92 1    
    49   23   93 1    
    50   24   25 am   BACKBONE|DICT|INTERRES
    51   24   94 1    
    52   25   26 2    
    53   25   27 1    
    54   27   28 1    
    55   27   29 1    
    56   27   95 1    
    57   28   96 1    
    58   28   97 1    
    59   28   98 1    
    60   29   30 am   BACKBONE|DICT|INTERRES
    61   29   99 1    
    62   30   31 2    
    63   30   32 1    
    64   32   33 1    
    65   32   34 1    
    66   32  100 1    
    67   33  101 1    
    68   33  102 1    
    69   33  103 1    
    70   34   35 am   BACKBONE|DICT|INTERRES
    71   34  104 1    
    72   35   36 2    
    73   37   38 2    
    74   37   39 am   BACKBONE|DICT|INTERRES
    75   39   40 1    
    76   39  105 1    
    77   40   41 1    
    78   40   42 1    
    79   40  106 1    
    80   41  107 1    
    81   41  108 1    
    82   41  109 1    
    83   42   43 2    
    84   42   44 am   BACKBONE|DICT|INTERRES
    85   44   45 1    
    86   44  110 1    
    87   45   46 1    
    88   45   47 1    
    89   45  111 1    
    90   46  112 1    
    91   46  113 1    
    92   46  114 1    
    93   47   48 2    
    94   47   49 am   BACKBONE|DICT|INTERRES
    95   49   50 1    
    96   49  115 1    
    97   50   51 1    
    98   50   52 1    
    99   50  116 1    
   100   51  117 1    
   101   51  118 1    
   102   51  119 1    
   103   52   53 2    
   104   52   54 am   BACKBONE|DICT|INTERRES
   105   54   55 1    
   106   54  120 1    
   107   55   56 1    
   108   55   57 1    
   109   55  121 1    
   110   56  122 1    
   111   56  123 1    
   112   56  124 1    
   113   57   58 2    
   114   57   59 am   BACKBONE|DICT|INTERRES
   115   59   60 1    
   116   59  125 1    
   117   60   61 1    
   118   60   62 1    
   119   60  126 1    
   120   61  127 1    
   121   61  128 1    
   122   61  129 1    
   123   62   63 2    
   124   62   64 am   BACKBONE|DICT|INTERRES
   125   64   65 1    
   126   64  130 1    
   127   65   66 1    
   128   65   69 1    
   129   65  131 1    
   130   66   67 am   BACKBONE|DICT|INTERRES
   131   66   68 2    
   132   67  132 1    
   133   67  133 1    
   134   69   70 1    
   135   69  134 1    
   136   69  135 1    
   137   70   71 1    
   138   71  136 1    
   139   71  137 1    
@<TRIPOS>SUBSTRUCTURE
     1 UNK         1 GROUP             0       ****    0 ROOT    
