@<TRIPOS>MOLECULE
3R136
137   139    1
SMALL
USER_CHARGES


@<TRIPOS>ATOM
      1 CA         29.7101   20.2508    1.2160 C.3       0 UNK        -0.1979 
      2 C          29.3663   21.5928    0.5888 C.2       0 UNK         0.4864 
      3 O          28.2941   22.1348    0.8606 O.2       0 UNK        -0.5359 
      4 N          30.2619   22.1246   -0.2596 N.am      1 UNK        -0.4318 
      5 CA         30.1749   23.4407   -0.9207 C.3       1 UNK         0.0824 
      6 C6         30.3368   24.6236    0.0792 C.3       12 UNK        -0.0944 
      7 S7         31.9964   24.6728    0.8346 S.3       12 UNK        -0.2672 
      8 C8         31.7295   23.8664    2.4452 C.3       12 UNK         0.0333 
      9 C9         30.9217   24.7232    3.4090 C.ar      12 UNK        -0.0807 
     10 C10        31.5130   25.8366    4.0101 C.ar      12 UNK        -0.0894 
     11 C11        30.8115   26.5959    4.9499 C.ar      12 UNK        -0.0804 
     12 C12        29.5045   26.2338    5.2901 C.ar      12 UNK        -0.0824 
     13 C13        28.9012   25.1183    4.6975 C.ar      12 UNK        -0.0762 
     14 C14        29.6107   24.3732    3.7491 C.ar      12 UNK        -0.0782 
     15 C15        27.5041   24.6826    5.1191 C.3       12 UNK         0.0230 
     16 S16        26.2282   25.1863    3.9240 S.3       12 UNK        -0.2608 
     17 C17        26.1948   26.9970    4.1569 C.3       12 UNK        -0.0989 
     18 CA         26.9271   27.7399    3.0143 C.3       5 UNK         0.0716 
     19 N          26.3422   27.4198    1.7053 N.am      5 UNK        -0.4135 
     20 C          26.8596   27.7194    0.5081 C.2       4 UNK         0.5031 
     21 O          27.8711   28.4061    0.3595 O.2       4 UNK        -0.5229 
     22 CA         26.1030   27.1653   -0.7133 C.3       4 UNK         0.0329 
     23 CB         26.7635   27.5585   -2.0475 C.3       4 UNK        -0.2001 
     24 N          25.9799   25.7060   -0.6365 N.am      4 UNK        -0.4303 
     25 C          25.0460   25.0512    0.0727 C.2       3 UNK         0.5044 
     26 O          24.1793   25.6387    0.7233 O.2       3 UNK        -0.5152 
     27 CA         25.1008   23.5090    0.1259 C.3       3 UNK         0.0319 
     28 CB         23.6977   22.8674    0.0843 C.3       3 UNK        -0.2001 
     29 N          25.9991   22.8987   -0.8600 N.am      3 UNK        -0.4354 
     30 C          25.8830   22.9058   -2.1992 C.2       2 UNK         0.4964 
     31 O          24.9064   23.3573   -2.7991 O.2       2 UNK        -0.5047 
     32 CA         27.0806   22.3456   -3.0031 C.3       2 UNK         0.0288 
     33 CB         27.1807   22.9566   -4.4177 C.3       2 UNK        -0.2113 
     34 N          28.3680   22.4679   -2.3004 N.am      2 UNK        -0.4145 
     35 C          28.9140   23.5932   -1.8065 C.2       1 UNK         0.5006 
     36 O          28.4257   24.7088   -1.9872 O.2       1 UNK        -0.5103 
     37 C          27.0200   29.2539    3.3085 C.2       5 UNK         0.5055 
     38 O          27.7268   29.6429    4.2392 O.2       5 UNK        -0.5220 
     39 N          26.3372   30.0825    2.5036 N.am      6 UNK        -0.4450 
     40 CA         26.4631   31.5410    2.4799 C.3       6 UNK         0.0367 
     41 CB         25.3767   32.1257    1.5633 C.3       6 UNK        -0.1929 
     42 C          27.8574   32.0297    2.0399 C.2       6 UNK         0.5070 
     43 O          28.2274   33.1551    2.3782 O.2       6 UNK        -0.5237 
     44 N          28.6270   31.1888    1.3295 N.am      7 UNK        -0.4739 
     45 CA         30.0289   31.4236    0.9711 C.3       7 UNK         0.0276 
     46 CB         30.4077   30.5090   -0.2085 C.3       7 UNK        -0.1927 
     47 C          30.9557   31.2252    2.1875 C.2       7 UNK         0.5013 
     48 O          31.8082   30.3351    2.1839 O.2       7 UNK        -0.5193 
     49 N          30.7697   32.0687    3.2128 N.am      8 UNK        -0.4253 
     50 CA         31.4365   32.0234    4.5197 C.3       8 UNK         0.0242 
     51 CB         30.9036   33.1663    5.3977 C.3       8 UNK        -0.2000 
     52 C          32.9738   32.0538    4.4712 C.2       8 UNK         0.4948 
     53 O          33.6082   31.5521    5.3979 O.2       8 UNK        -0.5275 
     54 N          33.5477   32.5791    3.3786 N.am      9 UNK        -0.4246 
     55 CA         34.9790   32.5356    3.0654 C.3       9 UNK         0.0261 
     56 CB         35.2319   33.2740    1.7415 C.3       9 UNK        -0.1959 
     57 C          35.5616   31.1096    3.0056 C.2       9 UNK         0.5033 
     58 O          36.7344   30.9328    3.3378 O.2       9 UNK        -0.5390 
     59 N          34.7364   30.1110    2.6490 N.am      10 UNK        -0.4215 
     60 CA         35.0950   28.6883    2.6870 C.3       10 UNK         0.0240 
     61 CB         34.0254   27.8747    1.9404 C.3       10 UNK        -0.1982 
     62 C          35.3017   28.1401    4.1143 C.2       10 UNK         0.4970 
     63 O          35.9512   27.1050    4.2653 O.2       10 UNK        -0.4916 
     64 N          34.7694   28.8421    5.1224 N.am      11 UNK        -0.4279 
     65 CA         34.9664   28.5823    6.5542 C.3       11 UNK         0.1003 
     66 C          36.0398   29.5168    7.1889 C.2       11 UNK         0.5709 
     67 N          36.7622   30.3336    6.4282 N.am      11 UNK        -0.7358 
     68 O          36.2483   29.4814    8.3996 O.2       11 UNK        -0.4999 
     69 C69        33.6114   28.6319    7.3148 C.3       12 UNK        -0.0954 
     70 S70        32.5827   27.1721    6.9558 S.3       12 UNK        -0.2268 
     71 C71        31.4956   27.7728    5.6267 C.3       12 UNK         0.0203 
     72 H72        30.6826   19.8836    0.8884 H         1 UNK         0.0888 
     73 H73        28.9583   19.5085    0.9492 H         1 UNK         0.0888 
     74 H74        29.7298   20.3409    2.3018 H         1 UNK         0.0888 
     75 H75        31.1142   21.6145   -0.4479 H         1 UNK         0.3017 
     76 H76        31.0113   23.4845   -1.6201 H         1 UNK         0.0873 
     77 H77        29.5669   24.5950    0.8515 H         1 UNK         0.0745 
     78 H78        30.2117   25.5827   -0.4269 H         1 UNK         0.0745 
     79 H79        31.2599   22.8944    2.3017 H         1 UNK         0.0705 
     80 H80        32.7040   23.6611    2.8906 H         1 UNK         0.0705 
     81 H81        32.5343   26.0949    3.7676 H         1 UNK         0.1334 
     82 H82        28.9670   26.8076    6.0326 H         1 UNK         0.1417 
     83 H83        29.1475   23.5073    3.2944 H         1 UNK         0.1562 
     84 H84        27.2561   25.0755    6.1064 H         1 UNK         0.0748 
     85 H85        27.4800   23.5961    5.2151 H         1 UNK         0.0748 
     86 H86        26.6326   27.2433    5.1260 H         1 UNK         0.0940 
     87 H87        25.1517   27.3147    4.2113 H         1 UNK         0.0940 
     88 H88        27.9584   27.3809    2.9883 H         1 UNK         0.0703 
     89 H89        25.5102   26.8385    1.7191 H         1 UNK         0.3081 
     90 H90        25.1040   27.6063   -0.7042 H         1 UNK         0.0719 
     91 H91        27.8018   27.2300   -2.0991 H         1 UNK         0.0809 
     92 H92        26.2328   27.1288   -2.8972 H         1 UNK         0.0809 
     93 H93        26.7626   28.6415   -2.1764 H         1 UNK         0.0809 
     94 H94        26.7043   25.1761   -1.1126 H         1 UNK         0.2990 
     95 H95        25.5371   23.2701    1.0972 H         1 UNK         0.0690 
     96 H96        23.7564   21.7804    0.1377 H         1 UNK         0.0788 
     97 H97        23.1557   23.1317   -0.8240 H         1 UNK         0.0788 
     98 H98        23.0919   23.1987    0.9286 H         1 UNK         0.0788 
     99 H99        26.8540   22.5228   -0.4569 H         1 UNK         0.2993 
    100 H100       26.8904   21.2771   -3.1156 H         1 UNK         0.0949 
    101 H101       26.2813   22.7505   -4.9995 H         1 UNK         0.0767 
    102 H102       27.3038   24.0397   -4.3821 H         1 UNK         0.0767 
    103 H103       28.0233   22.5412   -4.9704 H         1 UNK         0.0767 
    104 H104       28.8367   21.5971   -2.0921 H         1 UNK         0.3013 
    105 H105       25.7743   29.6678    1.7760 H         1 UNK         0.3121 
    106 H106       26.2944   31.9082    3.4944 H         1 UNK         0.0774 
    107 H107       24.3780   31.8532    1.9052 H         1 UNK         0.0815 
    108 H108       25.4875   31.7815    0.5342 H         1 UNK         0.0815 
    109 H109       25.4251   33.2156    1.5486 H         1 UNK         0.0815 
    110 H110       28.2630   30.2687    1.0992 H         1 UNK         0.2987 
    111 H111       30.1390   32.4584    0.6390 H         1 UNK         0.0949 
    112 H112       30.3477   29.4542    0.0633 H         1 UNK         0.0806 
    113 H113       29.7525   30.6707   -1.0645 H         1 UNK         0.0806 
    114 H114       31.4292   30.7012   -0.5392 H         1 UNK         0.0806 
    115 H115       30.0104   32.7366    3.1139 H         1 UNK         0.3010 
    116 H116       31.1548   31.0763    4.9847 H         1 UNK         0.0829 
    117 H117       29.8246   33.0907    5.5353 H         1 UNK         0.0813 
    118 H118       31.3573   33.1421    6.3897 H         1 UNK         0.0813 
    119 H119       31.1198   34.1431    4.9630 H         1 UNK         0.0813 
    120 H120       32.9410   32.9697    2.6728 H         1 UNK         0.3038 
    121 H121       35.5028   33.0672    3.8625 H         1 UNK         0.0769 
    122 H122       34.7062   32.8036    0.9094 H         1 UNK         0.0811 
    123 H123       36.2947   33.2785    1.4946 H         1 UNK         0.0811 
    124 H124       34.9109   34.3144    1.7983 H         1 UNK         0.0811 
    125 H125       33.7684   30.3245    2.4183 H         1 UNK         0.3204 
    126 H126       36.0420   28.5683    2.1568 H         1 UNK         0.0748 
    127 H127       33.9332   28.1971    0.9032 H         1 UNK         0.0771 
    128 H128       34.2756   26.8129    1.9275 H         1 UNK         0.0771 
    129 H129       33.0446   27.9737    2.4060 H         1 UNK         0.0771 
    130 H130       34.2941   29.7150    4.9216 H         1 UNK         0.2980 
    131 H131       35.3755   27.5786    6.6817 H         1 UNK         0.0545 
    132 H132       37.4557   30.9196    6.8647 H         1 UNK         0.3459 
    133 H133       36.6318   30.3721    5.4260 H         1 UNK         0.3459 
    134 H134       33.7693   28.6356    8.3946 H         1 UNK         0.0616 
    135 H135       33.0592   29.5450    7.0880 H         1 UNK         0.0616 
    136 H136       32.0723   28.3323    4.8893 H         1 UNK         0.0634 
    137 H137       30.7616   28.4664    6.0397 H         1 UNK         0.0634 
@<TRIPOS>BOND
     1    1    2 1    
     2    1   72 1    
     3    1   73 1    
     4    1   74 1    
     5    2    3 2    
     6    2    4 am   BACKBONE|DICT|INTERRES
     7    4    5 1    
     8    4   75 1    
     9    5    6 1    
    10    5   35 1    
    11    5   76 1    
    12    6    7 1    
    13    6   77 1    
    14    6   78 1    
    15    7    8 1    
    16    8    9 1    
    17    8   79 1    
    18    8   80 1    
    19    9   10 ar   
    20    9   14 ar   
    21   10   11 ar   
    22   10   81 1    
    23   11   12 ar   
    24   11   71 1    
    25   12   13 ar   
    26   12   82 1    
    27   13   14 ar   
    28   13   15 1    
    29   14   83 1    
    30   15   16 1    
    31   15   84 1    
    32   15   85 1    
    33   16   17 1    
    34   17   18 1    
    35   17   86 1    
    36   17   87 1    
    37   18   19 1    
    38   18   37 1    
    39   18   88 1    
    40   19   20 am   BACKBONE|DICT|INTERRES
    41   19   89 1    
    42   20   21 2    
    43   20   22 1    
    44   22   23 1    
    45   22   24 1    
    46   22   90 1    
    47   23   91 1    
    48   23   92 1    
    49   23   93 1    
    50   24   25 am   BACKBONE|DICT|INTERRES
    51   24   94 1    
    52   25   26 2    
    53   25   27 1    
    54   27   28 1    
    55   27   29 1    
    56   27   95 1    
    57   28   96 1    
    58   28   97 1    
    59   28   98 1    
    60   29   30 am   BACKBONE|DICT|INTERRES
    61   29   99 1    
    62   30   31 2    
    63   30   32 1    
    64   32   33 1    
    65   32   34 1    
    66   32  100 1    
    67   33  101 1    
    68   33  102 1    
    69   33  103 1    
    70   34   35 am   BACKBONE|DICT|INTERRES
    71   34  104 1    
    72   35   36 2    
    73   37   38 2    
    74   37   39 am   BACKBONE|DICT|INTERRES
    75   39   40 1    
    76   39  105 1    
    77   40   41 1    
    78   40   42 1    
    79   40  106 1    
    80   41  107 1    
    81   41  108 1    
    82   41  109 1    
    83   42   43 2    
    84   42   44 am   BACKBONE|DICT|INTERRES
    85   44   45 1    
    86   44  110 1    
    87   45   46 1    
    88   45   47 1    
    89   45  111 1    
    90   46  112 1    
    91   46  113 1    
    92   46  114 1    
    93   47   48 2    
    94   47   49 am   BACKBONE|DICT|INTERRES
    95   49   50 1    
    96   49  115 1    
    97   50   51 1    
    98   50   52 1    
    99   50  116 1    
   100   51  117 1    
   101   51  118 1    
   102   51  119 1    
   103   52   53 2    
   104   52   54 am   BACKBONE|DICT|INTERRES
   105   54   55 1    
   106   54  120 1    
   107   55   56 1    
   108   55   57 1    
   109   55  121 1    
   110   56  122 1    
   111   56  123 1    
   112   56  124 1    
   113   57   58 2    
   114   57   59 am   BACKBONE|DICT|INTERRES
   115   59   60 1    
   116   59  125 1    
   117   60   61 1    
   118   60   62 1    
   119   60  126 1    
   120   61  127 1    
   121   61  128 1    
   122   61  129 1    
   123   62   63 2    
   124   62   64 am   BACKBONE|DICT|INTERRES
   125   64   65 1    
   126   64  130 1    
   127   65   66 1    
   128   65   69 1    
   129   65  131 1    
   130   66   67 am   BACKBONE|DICT|INTERRES
   131   66   68 2    
   132   67  132 1    
   133   67  133 1    
   134   69   70 1    
   135   69  134 1    
   136   69  135 1    
   137   70   71 1    
   138   71  136 1    
   139   71  137 1    
@<TRIPOS>SUBSTRUCTURE
     1 UNK         1 GROUP             0       ****    0 ROOT    
