@<TRIPOS>MOLECULE
3R136
137   139    1
SMALL
USER_CHARGES


@<TRIPOS>ATOM
      1 CA         30.2873   17.1252    0.7220 C.3       0 UNK        -0.1979 
      2 C          30.6995   18.5430    0.3535 C.2       0 UNK         0.4864 
      3 O          31.2383   18.7602   -0.7334 O.2       0 UNK        -0.5359 
      4 N          30.4586   19.5048    1.2528 N.am      1 UNK        -0.4318 
      5 CA         30.7149   20.9321    1.0420 C.3       1 UNK         0.0824 
      6 C6         30.8635   21.6792    2.3932 C.3       12 UNK        -0.0944 
      7 S7         29.3622   21.7014    3.4401 S.3       12 UNK        -0.2672 
      8 C8         30.0431   22.1286    5.0756 C.3       12 UNK         0.0333 
      9 C9         30.8294   23.4310    5.0394 C.ar      12 UNK        -0.0807 
     10 C10        32.2159   23.3967    4.8931 C.ar      12 UNK        -0.0894 
     11 C11        32.9491   24.5787    4.7923 C.ar      12 UNK        -0.0804 
     12 C12        32.2891   25.8087    4.8792 C.ar      12 UNK        -0.0824 
     13 C13        30.8998   25.8657    5.0493 C.ar      12 UNK        -0.0762 
     14 C14        30.1771   24.6641    5.1279 C.ar      12 UNK        -0.0782 
     15 C15        30.2424   27.2468    5.1319 C.3       12 UNK         0.0230 
     16 S16        28.4188   27.2541    5.2433 S.3       12 UNK        -0.2608 
     17 C17        28.0627   29.0380    5.4015 C.3       12 UNK        -0.0989 
     18 CA         28.1698   29.8024    4.0598 C.3       5 UNK         0.0716 
     19 N          27.4323   29.1500    2.9741 N.am      5 UNK        -0.4135 
     20 C          27.5489   29.4515    1.6752 C.2       4 UNK         0.5031 
     21 O          28.1276   30.4595    1.2703 O.2       4 UNK        -0.5229 
     22 CA         26.9400   28.4501    0.6768 C.3       4 UNK         0.0329 
     23 CB         27.3378   28.7456   -0.7814 C.3       4 UNK        -0.2001 
     24 N          27.3316   27.0764    1.0030 N.am      4 UNK        -0.4303 
     25 C          26.7238   26.2887    1.9001 C.2       3 UNK         0.5044 
     26 O          25.7598   26.6635    2.5700 O.2       3 UNK        -0.5152 
     27 CA         27.3092   24.8808    2.1315 C.3       3 UNK         0.0319 
     28 CB         26.2145   23.8419    2.4526 C.3       3 UNK        -0.2001 
     29 N          28.1851   24.3973    1.0562 N.am      3 UNK        -0.4354 
     30 C          27.8616   24.1612   -0.2261 C.2       2 UNK         0.4964 
     31 O          26.7496   24.3675   -0.7122 O.2       2 UNK        -0.5047 
     32 CA         28.9809   23.6036   -1.1238 C.3       2 UNK         0.0288 
     33 CB         29.7233   24.7561   -1.8192 C.3       2 UNK        -0.2113 
     34 N          29.9378   22.7711   -0.3853 N.am      2 UNK        -0.4145 
     35 C          29.6397   21.5722    0.1359 C.2       1 UNK         0.5006 
     36 O          28.5583   21.0030   -0.0453 O.2       1 UNK        -0.5103 
     37 C          27.8444   31.2996    4.2375 C.2       5 UNK         0.5055 
     38 O          28.6827   32.0347    4.7623 O.2       5 UNK        -0.5220 
     39 N          26.6727   31.7372    3.7539 N.am      6 UNK        -0.4450 
     40 CA         26.2741   33.1440    3.6660 C.3       6 UNK         0.0367 
     41 CB         24.8116   33.2300    3.2019 C.3       6 UNK        -0.1929 
     42 C          27.1805   33.9821    2.7435 C.2       6 UNK         0.5070 
     43 O          27.3378   35.1787    2.9861 O.2       6 UNK        -0.5237 
     44 N          27.8022   33.3514    1.7357 N.am      7 UNK        -0.4739 
     45 CA         28.7739   33.9685    0.8294 C.3       7 UNK         0.0276 
     46 CB         28.7006   33.2679   -0.5410 C.3       7 UNK        -0.1927 
     47 C          30.1912   33.9455    1.4356 C.2       7 UNK         0.5013 
     48 O          31.1286   33.4759    0.7901 O.2       7 UNK        -0.5193 
     49 N          30.3123   34.4480    2.6734 N.am      8 UNK        -0.4253 
     50 CA         31.5346   34.5685    3.4774 C.3       8 UNK         0.0242 
     51 CB         32.4704   35.6389    2.8750 C.3       8 UNK        -0.2000 
     52 C          32.2412   33.2187    3.7186 C.2       8 UNK         0.4948 
     53 O          33.4421   33.0999    3.4671 O.2       8 UNK        -0.5275 
     54 N          31.4769   32.2324    4.2136 N.am      9 UNK        -0.4246 
     55 CA         31.9117   30.8769    4.5762 C.3       9 UNK         0.0261 
     56 CB         32.8908   30.9116    5.7701 C.3       9 UNK        -0.1959 
     57 C          32.4465   30.0609    3.3813 C.2       9 UNK         0.5033 
     58 O          33.4409   29.3481    3.5305 O.2       9 UNK        -0.5390 
     59 N          31.7820   30.1717    2.2195 N.am      10 UNK        -0.4215 
     60 CA         32.1323   29.4602    0.9869 C.3       10 UNK         0.0240 
     61 CB         31.2920   29.9893   -0.1857 C.3       10 UNK        -0.1982 
     62 C          31.9885   27.9349    1.1363 C.2       10 UNK         0.4970 
     63 O          30.8694   27.4182    1.1761 O.2       10 UNK        -0.4916 
     64 N          33.1404   27.2643    1.2309 N.am      11 UNK        -0.4279 
     65 CA         33.2836   25.8126    1.3874 C.3       11 UNK         0.1003 
     66 C          32.9435   25.0015    0.1059 C.2       11 UNK         0.5709 
     67 N          33.1040   25.5653   -1.0854 N.am      11 UNK        -0.7358 
     68 O          32.4954   23.8608    0.1913 O.2       11 UNK        -0.4999 
     69 C69        34.7030   25.4918    1.9290 C.3       12 UNK        -0.0954 
     70 S70        34.8206   23.9367    2.8689 S.3       12 UNK        -0.2268 
     71 C71        34.4496   24.5019    4.5620 C.3       12 UNK         0.0203 
     72 H72        31.1553   16.4665    0.7103 H         1 UNK         0.0888 
     73 H73        29.8381   17.0762    1.7139 H         1 UNK         0.0888 
     74 H74        29.5617   16.7469    0.0024 H         1 UNK         0.0888 
     75 H75        29.9767   19.2791    2.1113 H         1 UNK         0.3017 
     76 H76        31.6675   21.0239    0.5146 H         1 UNK         0.0873 
     77 H77        31.6746   21.2212    2.9611 H         1 UNK         0.0745 
     78 H78        31.1746   22.7111    2.2234 H         1 UNK         0.0745 
     79 H79        29.2233   22.2110    5.7907 H         1 UNK         0.0705 
     80 H80        30.6732   21.3100    5.4270 H         1 UNK         0.0705 
     81 H81        32.7265   22.4462    4.8189 H         1 UNK         0.1334 
     82 H82        32.8572   26.7262    4.7964 H         1 UNK         0.1417 
     83 H83        29.1037   24.6681    5.2473 H         1 UNK         0.1562 
     84 H84        30.5308   27.8123    4.2453 H         1 UNK         0.0748 
     85 H85        30.6494   27.7770    5.9942 H         1 UNK         0.0748 
     86 H86        28.7363   29.4669    6.1464 H         1 UNK         0.0940 
     87 H87        27.0565   29.1375    5.8136 H         1 UNK         0.0940 
     88 H88        29.2127   29.7661    3.7474 H         1 UNK         0.0703 
     89 H89        26.9188   28.3107    3.2190 H         1 UNK         0.3081 
     90 H90        25.8546   28.5441    0.7504 H         1 UNK         0.0719 
     91 H91        27.0586   29.7602   -1.0690 H         1 UNK         0.0809 
     92 H92        26.8375   28.0658   -1.4713 H         1 UNK         0.0809 
     93 H93        28.4122   28.6443   -0.9354 H         1 UNK         0.0809 
     94 H94        28.1652   26.7264    0.5524 H         1 UNK         0.2990 
     95 H95        27.9460   24.9672    3.0126 H         1 UNK         0.0690 
     96 H96        26.6415   22.8536    2.6216 H         1 UNK         0.0788 
     97 H97        25.4873   23.7583    1.6445 H         1 UNK         0.0788 
     98 H98        25.6674   24.1147    3.3558 H         1 UNK         0.0788 
     99 H99        29.1360   24.2018    1.3351 H         1 UNK         0.2993 
    100 H100       28.5125   22.9829   -1.8910 H         1 UNK         0.0949 
    101 H101       30.5090   24.3839   -2.4766 H         1 UNK         0.0767 
    102 H102       29.0395   25.3443   -2.4329 H         1 UNK         0.0767 
    103 H103       30.1783   25.4374   -1.0991 H         1 UNK         0.0767 
    104 H104       30.8591   23.1691   -0.2071 H         1 UNK         0.3013 
    105 H105       26.0501   31.0608    3.3367 H         1 UNK         0.3121 
    106 H106       26.3429   33.5722    4.6683 H         1 UNK         0.0774 
    107 H107       24.6763   32.7986    2.2092 H         1 UNK         0.0815 
    108 H108       24.4790   34.2680    3.1535 H         1 UNK         0.0815 
    109 H109       24.1443   32.7104    3.8898 H         1 UNK         0.0815 
    110 H110       27.6902   32.3458    1.6365 H         1 UNK         0.2987 
    111 H111       28.5090   35.0170    0.6756 H         1 UNK         0.0949 
    112 H112       29.0048   32.2227   -0.4793 H         1 UNK         0.0806 
    113 H113       27.6907   33.2988   -0.9498 H         1 UNK         0.0806 
    114 H114       29.3573   33.7543   -1.2633 H         1 UNK         0.0806 
    115 H115       29.4623   34.7925    3.1060 H         1 UNK         0.3010 
    116 H116       31.2213   34.9248    4.4600 H         1 UNK         0.0829 
    117 H117       32.8480   35.3420    1.8959 H         1 UNK         0.0813 
    118 H118       31.9593   36.5949    2.7615 H         1 UNK         0.0813 
    119 H119       33.3346   35.8093    3.5183 H         1 UNK         0.0813 
    120 H120       30.4900   32.4219    4.3802 H         1 UNK         0.3038 
    121 H121       31.0230   30.3560    4.9277 H         1 UNK         0.0769 
    122 H122       33.1032   29.9042    6.1304 H         1 UNK         0.0811 
    123 H123       33.8447   31.3658    5.5003 H         1 UNK         0.0811 
    124 H124       32.4763   31.4725    6.6076 H         1 UNK         0.0811 
    125 H125       30.9877   30.7929    2.1668 H         1 UNK         0.3204 
    126 H126       33.1760   29.6932    0.7649 H         1 UNK         0.0748 
    127 H127       31.5503   29.4775   -1.1136 H         1 UNK         0.0771 
    128 H128       30.2278   29.8383   -0.0196 H         1 UNK         0.0771 
    129 H129       31.4585   31.0541   -0.3469 H         1 UNK         0.0771 
    130 H130       34.0016   27.7903    1.2235 H         1 UNK         0.2980 
    131 H131       32.5516   25.5101    2.1367 H         1 UNK         0.0545 
    132 H132       32.8820   25.0381   -1.9140 H         1 UNK         0.3459 
    133 H133       33.4606   26.5034   -1.1662 H         1 UNK         0.3459 
    134 H134       35.4298   25.4595    1.1151 H         1 UNK         0.0616 
    135 H135       35.0474   26.2919    2.5866 H         1 UNK         0.0616 
    136 H136       34.8829   23.7930    5.2691 H         1 UNK         0.0634 
    137 H137       34.9312   25.4607    4.7589 H         1 UNK         0.0634 
@<TRIPOS>BOND
     1    1    2 1    
     2    1   72 1    
     3    1   73 1    
     4    1   74 1    
     5    2    3 2    
     6    2    4 am   BACKBONE|DICT|INTERRES
     7    4    5 1    
     8    4   75 1    
     9    5    6 1    
    10    5   35 1    
    11    5   76 1    
    12    6    7 1    
    13    6   77 1    
    14    6   78 1    
    15    7    8 1    
    16    8    9 1    
    17    8   79 1    
    18    8   80 1    
    19    9   10 ar   
    20    9   14 ar   
    21   10   11 ar   
    22   10   81 1    
    23   11   12 ar   
    24   11   71 1    
    25   12   13 ar   
    26   12   82 1    
    27   13   14 ar   
    28   13   15 1    
    29   14   83 1    
    30   15   16 1    
    31   15   84 1    
    32   15   85 1    
    33   16   17 1    
    34   17   18 1    
    35   17   86 1    
    36   17   87 1    
    37   18   19 1    
    38   18   37 1    
    39   18   88 1    
    40   19   20 am   BACKBONE|DICT|INTERRES
    41   19   89 1    
    42   20   21 2    
    43   20   22 1    
    44   22   23 1    
    45   22   24 1    
    46   22   90 1    
    47   23   91 1    
    48   23   92 1    
    49   23   93 1    
    50   24   25 am   BACKBONE|DICT|INTERRES
    51   24   94 1    
    52   25   26 2    
    53   25   27 1    
    54   27   28 1    
    55   27   29 1    
    56   27   95 1    
    57   28   96 1    
    58   28   97 1    
    59   28   98 1    
    60   29   30 am   BACKBONE|DICT|INTERRES
    61   29   99 1    
    62   30   31 2    
    63   30   32 1    
    64   32   33 1    
    65   32   34 1    
    66   32  100 1    
    67   33  101 1    
    68   33  102 1    
    69   33  103 1    
    70   34   35 am   BACKBONE|DICT|INTERRES
    71   34  104 1    
    72   35   36 2    
    73   37   38 2    
    74   37   39 am   BACKBONE|DICT|INTERRES
    75   39   40 1    
    76   39  105 1    
    77   40   41 1    
    78   40   42 1    
    79   40  106 1    
    80   41  107 1    
    81   41  108 1    
    82   41  109 1    
    83   42   43 2    
    84   42   44 am   BACKBONE|DICT|INTERRES
    85   44   45 1    
    86   44  110 1    
    87   45   46 1    
    88   45   47 1    
    89   45  111 1    
    90   46  112 1    
    91   46  113 1    
    92   46  114 1    
    93   47   48 2    
    94   47   49 am   BACKBONE|DICT|INTERRES
    95   49   50 1    
    96   49  115 1    
    97   50   51 1    
    98   50   52 1    
    99   50  116 1    
   100   51  117 1    
   101   51  118 1    
   102   51  119 1    
   103   52   53 2    
   104   52   54 am   BACKBONE|DICT|INTERRES
   105   54   55 1    
   106   54  120 1    
   107   55   56 1    
   108   55   57 1    
   109   55  121 1    
   110   56  122 1    
   111   56  123 1    
   112   56  124 1    
   113   57   58 2    
   114   57   59 am   BACKBONE|DICT|INTERRES
   115   59   60 1    
   116   59  125 1    
   117   60   61 1    
   118   60   62 1    
   119   60  126 1    
   120   61  127 1    
   121   61  128 1    
   122   61  129 1    
   123   62   63 2    
   124   62   64 am   BACKBONE|DICT|INTERRES
   125   64   65 1    
   126   64  130 1    
   127   65   66 1    
   128   65   69 1    
   129   65  131 1    
   130   66   67 am   BACKBONE|DICT|INTERRES
   131   66   68 2    
   132   67  132 1    
   133   67  133 1    
   134   69   70 1    
   135   69  134 1    
   136   69  135 1    
   137   70   71 1    
   138   71  136 1    
   139   71  137 1    
@<TRIPOS>SUBSTRUCTURE
     1 UNK         1 GROUP             0       ****    0 ROOT    
