@<TRIPOS>MOLECULE
3R136
137   139    1
SMALL
USER_CHARGES


@<TRIPOS>ATOM
      1 CA         24.7529   21.1130    2.6044 C.3       0 UNK        -0.1979 
      2 C          25.7893   20.7054    1.5676 C.2       0 UNK         0.4864 
      3 O          25.4245   20.3678    0.4408 O.2       0 UNK        -0.5359 
      4 N          27.0758   20.7305    1.9434 N.am      1 UNK        -0.4318 
      5 CA         28.2179   20.4078    1.0793 C.3       1 UNK         0.0824 
      6 C6         29.5107   20.2510    1.9199 C.3       12 UNK        -0.0944 
      7 S7         30.9813   19.7338    0.9622 S.3       12 UNK        -0.2672 
      8 C8         32.3582   20.2478    2.0428 C.3       12 UNK         0.0333 
      9 C9         32.3682   21.7492    2.2989 C.ar      12 UNK        -0.0807 
     10 C10        32.8275   22.6353    1.3208 C.ar      12 UNK        -0.0894 
     11 C11        32.8077   24.0154    1.5478 C.ar      12 UNK        -0.0804 
     12 C12        32.3242   24.5021    2.7670 C.ar      12 UNK        -0.0824 
     13 C13        31.8570   23.6269    3.7577 C.ar      12 UNK        -0.0762 
     14 C14        31.9016   22.2519    3.5162 C.ar      12 UNK        -0.0782 
     15 C15        31.2898   24.0959    5.1007 C.3       12 UNK         0.0230 
     16 S16        30.9549   25.8826    5.2681 S.3       12 UNK        -0.2608 
     17 C17        29.6285   26.1421    4.0413 C.3       12 UNK        -0.0989 
     18 CA         29.6102   27.6191    3.5616 C.3       5 UNK         0.0716 
     19 N          29.5836   27.7513    2.1026 N.am      5 UNK        -0.4135 
     20 C          29.9224   28.8840    1.4662 C.2       4 UNK         0.5031 
     21 O          30.3699   29.8743    2.0425 O.2       4 UNK        -0.5229 
     22 CA         29.7187   28.9471   -0.0578 C.3       4 UNK         0.0329 
     23 CB         31.0229   28.5906   -0.7880 C.3       4 UNK        -0.2001 
     24 N          28.6353   28.0904   -0.5434 N.am      4 UNK        -0.4303 
     25 C          27.3482   28.1938   -0.1796 C.2       3 UNK         0.5044 
     26 O          26.9189   29.0756    0.5619 O.2       3 UNK        -0.5152 
     27 CA         26.3881   27.0985   -0.6757 C.3       3 UNK         0.0319 
     28 CB         25.6041   27.5885   -1.9029 C.3       3 UNK        -0.2001 
     29 N          27.0559   25.8312   -0.9959 N.am      3 UNK        -0.4354 
     30 C          27.7071   25.0612   -0.1130 C.2       2 UNK         0.4964 
     31 O          27.8265   25.3295    1.0864 O.2       2 UNK        -0.5047 
     32 CA         28.4118   23.8309   -0.6847 C.3       2 UNK         0.0288 
     33 CB         29.8967   24.1408   -0.9472 C.3       2 UNK        -0.2113 
     34 N          28.2939   22.7289    0.2631 N.am      2 UNK        -0.4145 
     35 C          28.3766   21.4330   -0.0664 C.2       1 UNK         0.5006 
     36 O          28.5478   21.0319   -1.2201 O.2       1 UNK        -0.5103 
     37 C          28.4648   28.4235    4.2067 C.2       5 UNK         0.5055 
     38 O          28.7057   29.1872    5.1440 O.2       5 UNK        -0.5220 
     39 N          27.2497   28.2642    3.6584 N.am      6 UNK        -0.4450 
     40 CA         26.0369   28.9726    4.0778 C.3       6 UNK         0.0367 
     41 CB         24.8175   28.3893    3.3460 C.3       6 UNK        -0.1929 
     42 C          26.1246   30.4930    3.8654 C.2       6 UNK         0.5070 
     43 O          25.6235   31.2495    4.6979 O.2       6 UNK        -0.5237 
     44 N          26.8073   30.9204    2.7947 N.am      7 UNK        -0.4739 
     45 CA         27.1294   32.3130    2.4652 C.3       7 UNK         0.0276 
     46 CB         27.5067   32.3897    0.9741 C.3       7 UNK        -0.1927 
     47 C          28.2206   32.9196    3.3773 C.2       7 UNK         0.5013 
     48 O          29.1763   33.5148    2.8780 O.2       7 UNK        -0.5193 
     49 N          28.0483   32.7644    4.6977 N.am      8 UNK        -0.4253 
     50 CA         28.8882   33.2721    5.7881 C.3       8 UNK         0.0242 
     51 CB         28.7524   34.8065    5.8948 C.3       8 UNK        -0.2000 
     52 C          30.3560   32.8033    5.7146 C.2       8 UNK         0.4948 
     53 O          31.2604   33.6025    5.9662 O.2       8 UNK        -0.5275 
     54 N          30.5604   31.5157    5.3911 N.am      9 UNK        -0.4246 
     55 CA         31.8556   30.8338    5.2700 C.3       9 UNK         0.0261 
     56 CB         32.5122   30.6616    6.6562 C.3       9 UNK        -0.1959 
     57 C          32.7902   31.4939    4.2362 C.2       9 UNK         0.5033 
     58 O          33.9235   31.8551    4.5601 O.2       9 UNK        -0.5390 
     59 N          32.2959   31.6265    2.9990 N.am      10 UNK        -0.4215 
     60 CA         33.0452   32.1280    1.8438 C.3       10 UNK         0.0240 
     61 CB         32.0517   32.6015    0.7691 C.3       10 UNK        -0.1982 
     62 C          34.0170   31.0853    1.2585 C.2       10 UNK         0.4970 
     63 O          34.8974   31.4617    0.4839 O.2       10 UNK        -0.4916 
     64 N          33.8374   29.8068    1.6208 N.am      11 UNK        -0.4279 
     65 CA         34.7084   28.6792    1.2627 C.3       11 UNK         0.1003 
     66 C          36.1701   28.8764    1.7585 C.2       11 UNK         0.5709 
     67 N          37.1590   28.6327    0.9090 N.am      11 UNK        -0.7358 
     68 O          36.4095   29.2159    2.9157 O.2       11 UNK        -0.4999 
     69 C69        34.1051   27.3479    1.7841 C.3       12 UNK        -0.0954 
     70 S70        34.7741   25.8869    0.9134 S.3       12 UNK        -0.2268 
     71 C71        33.2660   24.9755    0.4557 C.3       12 UNK         0.0203 
     72 H72        25.2102   21.3792    3.5572 H         1 UNK         0.0888 
     73 H73        24.1855   21.9728    2.2492 H         1 UNK         0.0888 
     74 H74        24.0562   20.2939    2.7805 H         1 UNK         0.0888 
     75 H75        27.3034   21.0026    2.8892 H         1 UNK         0.3017 
     76 H76        28.0065   19.4419    0.6150 H         1 UNK         0.0873 
     77 H77        29.7163   21.1904    2.4304 H         1 UNK         0.0745 
     78 H78        29.3543   19.5095    2.7051 H         1 UNK         0.0745 
     79 H79        32.2989   19.6957    2.9821 H         1 UNK         0.0705 
     80 H80        33.3000   19.9540    1.5771 H         1 UNK         0.0705 
     81 H81        33.1825   22.2468    0.3759 H         1 UNK         0.1334 
     82 H82        32.3052   25.5677    2.9330 H         1 UNK         0.1417 
     83 H83        31.5459   21.5663    4.2739 H         1 UNK         0.1562 
     84 H84        31.9914   23.8108    5.8857 H         1 UNK         0.0748 
     85 H85        30.3626   23.5588    5.3073 H         1 UNK         0.0748 
     86 H86        28.6785   25.8273    4.4787 H         1 UNK         0.0940 
     87 H87        29.7856   25.4666    3.1998 H         1 UNK         0.0940 
     88 H88        30.5378   28.0951    3.8834 H         1 UNK         0.0703 
     89 H89        29.1915   26.9794    1.5772 H         1 UNK         0.3081 
     90 H90        29.4601   29.9773   -0.3086 H         1 UNK         0.0719 
     91 H91        31.3167   27.5565   -0.6105 H         1 UNK         0.0809 
     92 H92        30.9255   28.7315   -1.8646 H         1 UNK         0.0809 
     93 H93        31.8448   29.2260   -0.4557 H         1 UNK         0.0809 
     94 H94        28.8911   27.3434   -1.1715 H         1 UNK         0.2990 
     95 H95        25.6767   26.9043    0.1299 H         1 UNK         0.0690 
     96 H96        24.8544   26.8600   -2.2125 H         1 UNK         0.0788 
     97 H97        26.2601   27.7798   -2.7531 H         1 UNK         0.0788 
     98 H98        25.0770   28.5182   -1.6826 H         1 UNK         0.0788 
     99 H99        27.0222   25.5406   -1.9632 H         1 UNK         0.2993 
    100 H100       27.9260   23.5504   -1.6222 H         1 UNK         0.0949 
    101 H101       30.4170   23.2800   -1.3677 H         1 UNK         0.0767 
    102 H102       30.0128   24.9654   -1.6514 H         1 UNK         0.0767 
    103 H103       30.4065   24.4184   -0.0250 H         1 UNK         0.0767 
    104 H104       28.1084   23.0014    1.2194 H         1 UNK         0.3013 
    105 H105       27.1562   27.6424    2.8682 H         1 UNK         0.3121 
    106 H106       25.9079   28.7985    5.1482 H         1 UNK         0.0774 
    107 H107       24.8874   28.5268    2.2665 H         1 UNK         0.0815 
    108 H108       23.8983   28.8756    3.6755 H         1 UNK         0.0815 
    109 H109       24.7070   27.3230    3.5432 H         1 UNK         0.0815 
    110 H110       27.1218   30.2202    2.1286 H         1 UNK         0.2987 
    111 H111       26.2284   32.9124    2.6115 H         1 UNK         0.0949 
    112 H112       28.4295   31.8466    0.7694 H         1 UNK         0.0806 
    113 H113       26.7232   31.9716    0.3417 H         1 UNK         0.0806 
    114 H114       27.6595   33.4230    0.6599 H         1 UNK         0.0806 
    115 H115       27.2200   32.2458    4.9801 H         1 UNK         0.3010 
    116 H116       28.4840   32.8427    6.7061 H         1 UNK         0.0829 
    117 H117       29.1756   35.3096    5.0246 H         1 UNK         0.0813 
    118 H118       27.7086   35.1079    5.9822 H         1 UNK         0.0813 
    119 H119       29.2719   35.1865    6.7754 H         1 UNK         0.0813 
    120 H120       29.7492   30.9292    5.2151 H         1 UNK         0.3038 
    121 H121       31.6410   29.8351    4.8911 H         1 UNK         0.0769 
    122 H122       33.4283   30.0742    6.5830 H         1 UNK         0.0811 
    123 H123       32.7763   31.6206    7.1030 H         1 UNK         0.0811 
    124 H124       31.8485   30.1407    7.3463 H         1 UNK         0.0811 
    125 H125       31.3746   31.2405    2.7959 H         1 UNK         0.3204 
    126 H126       33.6387   32.9874    2.1626 H         1 UNK         0.0748 
    127 H127       32.5752   33.0270   -0.0881 H         1 UNK         0.0771 
    128 H128       31.4323   31.7835    0.4002 H         1 UNK         0.0771 
    129 H129       31.3871   33.3734    1.1579 H         1 UNK         0.0771 
    130 H130       33.0873   29.6050    2.2630 H         1 UNK         0.2980 
    131 H131       34.7166   28.6452    0.1713 H         1 UNK         0.0545 
    132 H132       38.1112   28.7439    1.2196 H         1 UNK         0.3459 
    133 H133       36.9709   28.3328   -0.0348 H         1 UNK         0.3459 
    134 H134       34.2685   27.2302    2.8571 H         1 UNK         0.0616 
    135 H135       33.0231   27.3656    1.6476 H         1 UNK         0.0616 
    136 H136       33.4717   24.4272   -0.4649 H         1 UNK         0.0634 
    137 H137       32.4635   25.6709    0.2135 H         1 UNK         0.0634 
@<TRIPOS>BOND
     1    1    2 1    
     2    1   72 1    
     3    1   73 1    
     4    1   74 1    
     5    2    3 2    
     6    2    4 am   BACKBONE|DICT|INTERRES
     7    4    5 1    
     8    4   75 1    
     9    5    6 1    
    10    5   35 1    
    11    5   76 1    
    12    6    7 1    
    13    6   77 1    
    14    6   78 1    
    15    7    8 1    
    16    8    9 1    
    17    8   79 1    
    18    8   80 1    
    19    9   10 ar   
    20    9   14 ar   
    21   10   11 ar   
    22   10   81 1    
    23   11   12 ar   
    24   11   71 1    
    25   12   13 ar   
    26   12   82 1    
    27   13   14 ar   
    28   13   15 1    
    29   14   83 1    
    30   15   16 1    
    31   15   84 1    
    32   15   85 1    
    33   16   17 1    
    34   17   18 1    
    35   17   86 1    
    36   17   87 1    
    37   18   19 1    
    38   18   37 1    
    39   18   88 1    
    40   19   20 am   BACKBONE|DICT|INTERRES
    41   19   89 1    
    42   20   21 2    
    43   20   22 1    
    44   22   23 1    
    45   22   24 1    
    46   22   90 1    
    47   23   91 1    
    48   23   92 1    
    49   23   93 1    
    50   24   25 am   BACKBONE|DICT|INTERRES
    51   24   94 1    
    52   25   26 2    
    53   25   27 1    
    54   27   28 1    
    55   27   29 1    
    56   27   95 1    
    57   28   96 1    
    58   28   97 1    
    59   28   98 1    
    60   29   30 am   BACKBONE|DICT|INTERRES
    61   29   99 1    
    62   30   31 2    
    63   30   32 1    
    64   32   33 1    
    65   32   34 1    
    66   32  100 1    
    67   33  101 1    
    68   33  102 1    
    69   33  103 1    
    70   34   35 am   BACKBONE|DICT|INTERRES
    71   34  104 1    
    72   35   36 2    
    73   37   38 2    
    74   37   39 am   BACKBONE|DICT|INTERRES
    75   39   40 1    
    76   39  105 1    
    77   40   41 1    
    78   40   42 1    
    79   40  106 1    
    80   41  107 1    
    81   41  108 1    
    82   41  109 1    
    83   42   43 2    
    84   42   44 am   BACKBONE|DICT|INTERRES
    85   44   45 1    
    86   44  110 1    
    87   45   46 1    
    88   45   47 1    
    89   45  111 1    
    90   46  112 1    
    91   46  113 1    
    92   46  114 1    
    93   47   48 2    
    94   47   49 am   BACKBONE|DICT|INTERRES
    95   49   50 1    
    96   49  115 1    
    97   50   51 1    
    98   50   52 1    
    99   50  116 1    
   100   51  117 1    
   101   51  118 1    
   102   51  119 1    
   103   52   53 2    
   104   52   54 am   BACKBONE|DICT|INTERRES
   105   54   55 1    
   106   54  120 1    
   107   55   56 1    
   108   55   57 1    
   109   55  121 1    
   110   56  122 1    
   111   56  123 1    
   112   56  124 1    
   113   57   58 2    
   114   57   59 am   BACKBONE|DICT|INTERRES
   115   59   60 1    
   116   59  125 1    
   117   60   61 1    
   118   60   62 1    
   119   60  126 1    
   120   61  127 1    
   121   61  128 1    
   122   61  129 1    
   123   62   63 2    
   124   62   64 am   BACKBONE|DICT|INTERRES
   125   64   65 1    
   126   64  130 1    
   127   65   66 1    
   128   65   69 1    
   129   65  131 1    
   130   66   67 am   BACKBONE|DICT|INTERRES
   131   66   68 2    
   132   67  132 1    
   133   67  133 1    
   134   69   70 1    
   135   69  134 1    
   136   69  135 1    
   137   70   71 1    
   138   71  136 1    
   139   71  137 1    
@<TRIPOS>SUBSTRUCTURE
     1 UNK         1 GROUP             0       ****    0 ROOT    
