@<TRIPOS>MOLECULE
3R136
137   139    1
SMALL
USER_CHARGES


@<TRIPOS>ATOM
      1 CA         29.3024   20.1117   -0.6635 C.3       0 UNK        -0.1979 
      2 C          28.7176   21.1805   -1.5752 C.2       0 UNK         0.4864 
      3 O          27.9927   20.8544   -2.5167 O.2       0 UNK        -0.5359 
      4 N          29.0341   22.4528   -1.3065 N.am      1 UNK        -0.4318 
      5 CA         28.5013   23.6226   -2.0091 C.3       1 UNK         0.0824 
      6 C6         29.3823   24.8849   -1.7954 C.3       12 UNK        -0.0944 
      7 S7         29.8591   25.2026   -0.0573 S.3       12 UNK        -0.2672 
      8 C8         31.5969   24.6477   -0.1013 C.3       12 UNK         0.0333 
      9 C9         32.1982   24.5958    1.2931 C.ar      12 UNK        -0.0807 
     10 C10        33.1894   25.5046    1.6753 C.ar      12 UNK        -0.0894 
     11 C11        33.7082   25.4848    2.9741 C.ar      12 UNK        -0.0804 
     12 C12        33.2145   24.5581    3.8974 C.ar      12 UNK        -0.0824 
     13 C13        32.2247   23.6437    3.5250 C.ar      12 UNK        -0.0762 
     14 C14        31.7478   23.6432    2.2110 C.ar      12 UNK        -0.0782 
     15 C15        31.6346   22.6894    4.5540 C.3       12 UNK         0.0230 
     16 S16        29.8390   22.9382    4.7702 S.3       12 UNK        -0.2608 
     17 C17        29.7346   24.7156    5.1907 C.3       12 UNK        -0.0989 
     18 CA         29.3688   25.6063    3.9663 C.3       5 UNK         0.0716 
     19 N          28.1463   25.1955    3.2650 N.am      5 UNK        -0.4135 
     20 C          26.9074   25.1634    3.7747 C.2       4 UNK         0.5031 
     21 O          26.6177   25.4925    4.9268 O.2       4 UNK        -0.5229 
     22 CA         25.8139   24.6823    2.8047 C.3       4 UNK         0.0329 
     23 CB         24.4278   24.5322    3.4687 C.3       4 UNK        -0.2001 
     24 N          25.7388   25.5246    1.6057 N.am      4 UNK        -0.4303 
     25 C          25.4243   26.8305    1.5434 C.2       3 UNK         0.5044 
     26 O          25.1409   27.5171    2.5246 O.2       3 UNK        -0.5152 
     27 CA         25.4304   27.5073    0.1567 C.3       3 UNK         0.0319 
     28 CB         26.6164   28.4765    0.0401 C.3       3 UNK        -0.2001 
     29 N          25.4858   26.5680   -0.9640 N.am      3 UNK        -0.4354 
     30 C          24.4906   25.7556   -1.3461 C.2       2 UNK         0.4964 
     31 O          23.3601   25.7820   -0.8592 O.2       2 UNK        -0.5047 
     32 CA         24.8186   24.7155   -2.4349 C.3       2 UNK         0.0288 
     33 CB         24.2655   25.1711   -3.7954 C.3       2 UNK        -0.2113 
     34 N          26.2490   24.4059   -2.5773 N.am      2 UNK        -0.4145 
     35 C          27.0300   23.8756   -1.6233 C.2       1 UNK         0.5006 
     36 O          26.6413   23.6353   -0.4762 O.2       1 UNK        -0.5103 
     37 C          29.3581   27.1140    4.2866 C.2       5 UNK         0.5055 
     38 O          29.6365   27.5129    5.4178 O.2       5 UNK        -0.5220 
     39 N          29.0410   27.9247    3.2695 N.am      6 UNK        -0.4450 
     40 CA         29.0244   29.3862    3.3335 C.3       6 UNK         0.0367 
     41 CB         27.6824   29.8811    3.9083 C.3       6 UNK        -0.1929 
     42 C          29.3559   29.9928    1.9604 C.2       6 UNK         0.5070 
     43 O          28.8021   31.0319    1.5994 O.2       6 UNK        -0.5237 
     44 N          30.2554   29.3390    1.2152 N.am      7 UNK        -0.4739 
     45 CA         30.8028   29.8218   -0.0495 C.3       7 UNK         0.0276 
     46 CB         30.1080   29.1041   -1.2216 C.3       7 UNK        -0.1927 
     47 C          32.3187   29.5563   -0.0340 C.2       7 UNK         0.5013 
     48 O          32.7131   28.4228   -0.3035 O.2       7 UNK        -0.5193 
     49 N          33.1835   30.5339    0.2796 N.am      8 UNK        -0.4253 
     50 CA         32.9094   31.9056    0.7267 C.3       8 UNK         0.0242 
     51 CB         34.2320   32.6911    0.6971 C.3       8 UNK        -0.2000 
     52 C          32.3093   31.9536    2.1422 C.2       8 UNK         0.4948 
     53 O          32.4239   30.9843    2.8924 O.2       8 UNK        -0.5275 
     54 N          31.7202   33.1007    2.5097 N.am      9 UNK        -0.4246 
     55 CA         31.0751   33.3415    3.8113 C.3       9 UNK         0.0261 
     56 CB         30.4949   34.7644    3.8359 C.3       9 UNK        -0.1959 
     57 C          31.9808   33.1079    5.0383 C.2       9 UNK         0.5033 
     58 O          31.4714   32.7857    6.1128 O.2       9 UNK        -0.5390 
     59 N          33.3035   33.2149    4.8429 N.am      10 UNK        -0.4215 
     60 CA         34.3516   32.8615    5.8043 C.3       10 UNK         0.0240 
     61 CB         35.7210   33.2114    5.1988 C.3       10 UNK        -0.1982 
     62 C          34.3289   31.3887    6.2643 C.2       10 UNK         0.4970 
     63 O          34.8656   31.0994    7.3347 O.2       10 UNK        -0.4916 
     64 N          33.7061   30.4937    5.4825 N.am      11 UNK        -0.4279 
     65 CA         33.4276   29.1021    5.8714 C.3       11 UNK         0.1003 
     66 C          32.3989   28.9584    7.0332 C.2       11 UNK         0.5709 
     67 N          31.6084   29.9761    7.3618 N.am      11 UNK        -0.7358 
     68 O          32.3388   27.9068    7.6660 O.2       11 UNK        -0.4999 
     69 C69        32.9989   28.2375    4.6575 C.3       12 UNK        -0.0954 
     70 S70        34.2514   28.1934    3.3308 S.3       12 UNK        -0.2268 
     71 C71        34.8049   26.4609    3.3808 C.3       12 UNK         0.0203 
     72 H72        29.9352   20.5399    0.1139 H         1 UNK         0.0888 
     73 H73        28.5017   19.5535   -0.1791 H         1 UNK         0.0888 
     74 H74        29.9042   19.4121   -1.2430 H         1 UNK         0.0888 
     75 H75        29.5913   22.6683   -0.4935 H         1 UNK         0.3017 
     76 H76        28.5176   23.3923   -3.0769 H         1 UNK         0.0873 
     77 H77        28.8890   25.7777   -2.1842 H         1 UNK         0.0745 
     78 H78        30.2897   24.7872   -2.3935 H         1 UNK         0.0745 
     79 H79        31.6610   23.6578   -0.5551 H         1 UNK         0.0705 
     80 H80        32.1673   25.3221   -0.7426 H         1 UNK         0.0705 
     81 H81        33.5515   26.2387    0.9680 H         1 UNK         0.1334 
     82 H82        33.5934   24.5569    4.9104 H         1 UNK         0.1417 
     83 H83        30.9760   22.9423    1.9237 H         1 UNK         0.1562 
     84 H84        32.1256   22.8042    5.5217 H         1 UNK         0.0748 
     85 H85        31.8159   21.6620    4.2356 H         1 UNK         0.0748 
     86 H86        30.6847   25.0341    5.6241 H         1 UNK         0.0940 
     87 H87        28.9945   24.8344    5.9837 H         1 UNK         0.0940 
     88 H88        30.1682   25.5010    3.2366 H         1 UNK         0.0703 
     89 H89        28.2730   24.9008    2.3069 H         1 UNK         0.3081 
     90 H90        26.1174   23.6912    2.4630 H         1 UNK         0.0719 
     91 H91        23.6881   24.1599    2.7602 H         1 UNK         0.0809 
     92 H92        24.0614   25.4773    3.8704 H         1 UNK         0.0809 
     93 H93        24.4698   23.8242    4.2972 H         1 UNK         0.0809 
     94 H94        25.9709   25.0459    0.7400 H         1 UNK         0.2990 
     95 H95        24.5065   28.0833    0.0721 H         1 UNK         0.0690 
     96 H96        26.6059   29.0035   -0.9140 H         1 UNK         0.0788 
     97 H97        27.5713   27.9574    0.1303 H         1 UNK         0.0788 
     98 H98        26.5789   29.2352    0.8225 H         1 UNK         0.0788 
     99 H99        26.3723   26.4841   -1.4382 H         1 UNK         0.2993 
    100 H100       24.3119   23.7906   -2.1506 H         1 UNK         0.0949 
    101 H101       23.1966   25.3808   -3.7329 H         1 UNK         0.0767 
    102 H102       24.7557   26.0800   -4.1468 H         1 UNK         0.0767 
    103 H103       24.3969   24.4012   -4.5563 H         1 UNK         0.0767 
    104 H104       26.6508   24.5820   -3.4874 H         1 UNK         0.3013 
    105 H105       28.8153   27.5187    2.3722 H         1 UNK         0.3121 
    106 H106       29.8218   29.7196    4.0019 H         1 UNK         0.0774 
    107 H107       27.6710   30.9676    4.0023 H         1 UNK         0.0815 
    108 H108       26.8443   29.5966    3.2720 H         1 UNK         0.0815 
    109 H109       27.5007   29.4711    4.9018 H         1 UNK         0.0815 
    110 H110       30.7275   28.5343    1.6058 H         1 UNK         0.2987 
    111 H111       30.6154   30.8882   -0.1701 H         1 UNK         0.0949 
    112 H112       30.1640   28.0196   -1.1266 H         1 UNK         0.0806 
    113 H113       29.0575   29.3837   -1.2860 H         1 UNK         0.0806 
    114 H114       30.5706   29.3729   -2.1720 H         1 UNK         0.0806 
    115 H115       34.1566   30.2709    0.3134 H         1 UNK         0.3010 
    116 H116       32.2179   32.3805    0.0292 H         1 UNK         0.0829 
    117 H117       34.6750   32.6844   -0.2992 H         1 UNK         0.0813 
    118 H118       34.0813   33.7364    0.9703 H         1 UNK         0.0813 
    119 H119       34.9645   32.2754    1.3909 H         1 UNK         0.0813 
    120 H120       31.6749   33.8584    1.8427 H         1 UNK         0.3038 
    121 H121       30.2462   32.6349    3.8917 H         1 UNK         0.0769 
    122 H122       29.9879   34.9630    4.7814 H         1 UNK         0.0811 
    123 H123       29.7610   34.9082    3.0426 H         1 UNK         0.0811 
    124 H124       31.2724   35.5203    3.7182 H         1 UNK         0.0811 
    125 H125       33.6144   33.4834    3.9215 H         1 UNK         0.3204 
    126 H126       34.1993   33.4777    6.6928 H         1 UNK         0.0748 
    127 H127       36.5266   32.9918    5.9011 H         1 UNK         0.0771 
    128 H128       35.9172   32.6412    4.2897 H         1 UNK         0.0771 
    129 H129       35.7892   34.2716    4.9537 H         1 UNK         0.0771 
    130 H130       33.3006   30.7867    4.5976 H         1 UNK         0.2980 
    131 H131       34.3630   28.6855    6.2496 H         1 UNK         0.0545 
    132 H132       31.6517   30.8577    6.8642 H         1 UNK         0.3459 
    133 H133       30.9527   29.8597    8.1170 H         1 UNK         0.3459 
    134 H134       32.7758   27.2182    4.9755 H         1 UNK         0.0616 
    135 H135       32.0743   28.6248    4.2280 H         1 UNK         0.0616 
    136 H136       35.1805   26.2376    4.3806 H         1 UNK         0.0634 
    137 H137       35.6506   26.3450    2.7017 H         1 UNK         0.0634 
@<TRIPOS>BOND
     1    1    2 1    
     2    1   72 1    
     3    1   73 1    
     4    1   74 1    
     5    2    3 2    
     6    2    4 am   BACKBONE|DICT|INTERRES
     7    4    5 1    
     8    4   75 1    
     9    5    6 1    
    10    5   35 1    
    11    5   76 1    
    12    6    7 1    
    13    6   77 1    
    14    6   78 1    
    15    7    8 1    
    16    8    9 1    
    17    8   79 1    
    18    8   80 1    
    19    9   10 ar   
    20    9   14 ar   
    21   10   11 ar   
    22   10   81 1    
    23   11   12 ar   
    24   11   71 1    
    25   12   13 ar   
    26   12   82 1    
    27   13   14 ar   
    28   13   15 1    
    29   14   83 1    
    30   15   16 1    
    31   15   84 1    
    32   15   85 1    
    33   16   17 1    
    34   17   18 1    
    35   17   86 1    
    36   17   87 1    
    37   18   19 1    
    38   18   37 1    
    39   18   88 1    
    40   19   20 am   BACKBONE|DICT|INTERRES
    41   19   89 1    
    42   20   21 2    
    43   20   22 1    
    44   22   23 1    
    45   22   24 1    
    46   22   90 1    
    47   23   91 1    
    48   23   92 1    
    49   23   93 1    
    50   24   25 am   BACKBONE|DICT|INTERRES
    51   24   94 1    
    52   25   26 2    
    53   25   27 1    
    54   27   28 1    
    55   27   29 1    
    56   27   95 1    
    57   28   96 1    
    58   28   97 1    
    59   28   98 1    
    60   29   30 am   BACKBONE|DICT|INTERRES
    61   29   99 1    
    62   30   31 2    
    63   30   32 1    
    64   32   33 1    
    65   32   34 1    
    66   32  100 1    
    67   33  101 1    
    68   33  102 1    
    69   33  103 1    
    70   34   35 am   BACKBONE|DICT|INTERRES
    71   34  104 1    
    72   35   36 2    
    73   37   38 2    
    74   37   39 am   BACKBONE|DICT|INTERRES
    75   39   40 1    
    76   39  105 1    
    77   40   41 1    
    78   40   42 1    
    79   40  106 1    
    80   41  107 1    
    81   41  108 1    
    82   41  109 1    
    83   42   43 2    
    84   42   44 am   BACKBONE|DICT|INTERRES
    85   44   45 1    
    86   44  110 1    
    87   45   46 1    
    88   45   47 1    
    89   45  111 1    
    90   46  112 1    
    91   46  113 1    
    92   46  114 1    
    93   47   48 2    
    94   47   49 am   BACKBONE|DICT|INTERRES
    95   49   50 1    
    96   49  115 1    
    97   50   51 1    
    98   50   52 1    
    99   50  116 1    
   100   51  117 1    
   101   51  118 1    
   102   51  119 1    
   103   52   53 2    
   104   52   54 am   BACKBONE|DICT|INTERRES
   105   54   55 1    
   106   54  120 1    
   107   55   56 1    
   108   55   57 1    
   109   55  121 1    
   110   56  122 1    
   111   56  123 1    
   112   56  124 1    
   113   57   58 2    
   114   57   59 am   BACKBONE|DICT|INTERRES
   115   59   60 1    
   116   59  125 1    
   117   60   61 1    
   118   60   62 1    
   119   60  126 1    
   120   61  127 1    
   121   61  128 1    
   122   61  129 1    
   123   62   63 2    
   124   62   64 am   BACKBONE|DICT|INTERRES
   125   64   65 1    
   126   64  130 1    
   127   65   66 1    
   128   65   69 1    
   129   65  131 1    
   130   66   67 am   BACKBONE|DICT|INTERRES
   131   66   68 2    
   132   67  132 1    
   133   67  133 1    
   134   69   70 1    
   135   69  134 1    
   136   69  135 1    
   137   70   71 1    
   138   71  136 1    
   139   71  137 1    
@<TRIPOS>SUBSTRUCTURE
     1 UNK         1 GROUP             0       ****    0 ROOT    
