@<TRIPOS>MOLECULE
3R136
137   139    1
SMALL
USER_CHARGES


@<TRIPOS>ATOM
      1 CA         32.6289   26.4399   -1.7907 C.3       0 UNK        -0.1979 
      2 C          31.5097   25.4120   -1.8612 C.2       0 UNK         0.4864 
      3 O          31.3396   24.7615   -2.8919 O.2       0 UNK        -0.5359 
      4 N          30.7340   25.2773   -0.7768 N.am      1 UNK        -0.4318 
      5 CA         29.6160   24.3379   -0.5975 C.3       1 UNK         0.0824 
      6 C6         30.0331   22.8458   -0.7343 C.3       12 UNK        -0.0944 
      7 S7         29.3040   21.8071    0.5796 S.3       12 UNK        -0.2672 
      8 C8         30.7603   21.3915    1.5895 C.3       12 UNK         0.0333 
      9 C9         31.1554   22.5065    2.5507 C.ar      12 UNK        -0.0807 
     10 C10        32.0054   23.5366    2.1344 C.ar      12 UNK        -0.0894 
     11 C11        32.4496   24.5045    3.0410 C.ar      12 UNK        -0.0804 
     12 C12        32.0422   24.4290    4.3773 C.ar      12 UNK        -0.0824 
     13 C13        31.1647   23.4271    4.8005 C.ar      12 UNK        -0.0762 
     14 C14        30.7249   22.4688    3.8813 C.ar      12 UNK        -0.0782 
     15 C15        30.7335   23.3480    6.2603 C.3       12 UNK         0.0230 
     16 S16        28.9462   23.6309    6.4757 S.3       12 UNK        -0.2608 
     17 C17        28.8121   25.4524    6.3854 C.3       12 UNK        -0.0989 
     18 CA         28.6619   25.9994    4.9429 C.3       5 UNK         0.0716 
     19 N          27.6756   25.2528    4.1563 N.am      5 UNK        -0.4135 
     20 C          27.6047   25.2777    2.8223 C.2       4 UNK         0.5031 
     21 O          28.3319   25.9893    2.1261 O.2       4 UNK        -0.5229 
     22 CA         26.5182   24.4196    2.1447 C.3       4 UNK         0.0329 
     23 CB         25.4665   23.8338    3.1142 C.3       4 UNK        -0.2001 
     24 N          25.8710   25.1683    1.0629 N.am      4 UNK        -0.4303 
     25 C          25.2521   26.3558    1.1713 C.2       3 UNK         0.5044 
     26 O          25.0363   26.9209    2.2452 O.2       3 UNK        -0.5152 
     27 CA         24.8807   27.0451   -0.1508 C.3       3 UNK         0.0319 
     28 CB         24.5138   28.5310    0.0258 C.3       3 UNK        -0.2001 
     29 N          26.0092   26.9199   -1.0725 N.am      3 UNK        -0.4354 
     30 C          25.9358   26.5179   -2.3460 C.2       2 UNK         0.4964 
     31 O          24.8789   26.3378   -2.9514 O.2       2 UNK        -0.5047 
     32 CA         27.2719   26.2402   -3.0630 C.3       2 UNK         0.0288 
     33 CB         27.7414   27.4944   -3.8183 C.3       2 UNK        -0.2113 
     34 N          28.3605   25.7704   -2.1932 N.am      2 UNK        -0.4145 
     35 C          28.3413   24.6771   -1.4128 C.2       1 UNK         0.5006 
     36 O          27.3440   23.9634   -1.2913 O.2       1 UNK        -0.5103 
     37 C          28.4356   27.5329    4.9393 C.2       5 UNK         0.5055 
     38 O          29.2655   28.2566    5.4876 O.2       5 UNK        -0.5220 
     39 N          27.3389   28.0128    4.3327 N.am      6 UNK        -0.4450 
     40 CA         27.0197   29.4327    4.1669 C.3       6 UNK         0.0367 
     41 CB         25.5204   29.6379    4.4495 C.3       6 UNK        -0.1929 
     42 C          27.4002   29.9676    2.7711 C.2       6 UNK         0.5070 
     43 O          27.0296   31.0976    2.4518 O.2       6 UNK        -0.5237 
     44 N          28.1075   29.1685    1.9544 N.am      7 UNK        -0.4739 
     45 CA         28.5047   29.4996    0.5785 C.3       7 UNK         0.0276 
     46 CB         29.2458   28.3018   -0.0308 C.3       7 UNK        -0.1927 
     47 C          29.3764   30.7592    0.4362 C.2       7 UNK         0.5013 
     48 O          29.2318   31.4843   -0.5489 O.2       7 UNK        -0.5193 
     49 N          30.2691   30.9833    1.4041 N.am      8 UNK        -0.4253 
     50 CA         31.2154   32.0919    1.4591 C.3       8 UNK         0.0242 
     51 CB         32.3726   31.8488    0.4686 C.3       8 UNK        -0.2000 
     52 C          31.7479   32.1875    2.8900 C.2       8 UNK         0.4948 
     53 O          31.6424   31.2157    3.6420 O.2       8 UNK        -0.5275 
     54 N          32.3716   33.3250    3.2270 N.am      9 UNK        -0.4246 
     55 CA         33.0246   33.5643    4.5221 C.3       9 UNK         0.0261 
     56 CB         33.5532   35.0067    4.5736 C.3       9 UNK        -0.1959 
     57 C          34.1525   32.5634    4.8390 C.2       9 UNK         0.5033 
     58 O          34.3520   32.2246    6.0061 O.2       9 UNK        -0.5390 
     59 N          34.8260   32.0650    3.7915 N.am      10 UNK        -0.4215 
     60 CA         35.8310   31.0005    3.8528 C.3       10 UNK         0.0240 
     61 CB         36.4704   30.8337    2.4644 C.3       10 UNK        -0.1982 
     62 C          35.2858   29.6492    4.3556 C.2       10 UNK         0.4970 
     63 O          36.0651   28.8613    4.8930 O.2       10 UNK        -0.4916 
     64 N          33.9781   29.4076    4.1889 N.am      11 UNK        -0.4279 
     65 CA         33.2734   28.2413    4.7368 C.3       11 UNK         0.1003 
     66 C          32.8208   28.4181    6.2162 C.2       11 UNK         0.5709 
     67 N          32.9970   29.5755    6.8457 N.am      11 UNK        -0.7358 
     68 O          32.3361   27.4650    6.8218 O.2       11 UNK        -0.4999 
     69 C69        32.0987   27.7981    3.8230 C.3       12 UNK        -0.0954 
     70 S70        32.6159   27.1734    2.1880 S.3       12 UNK        -0.2268 
     71 C71        33.4247   25.5861    2.5900 C.3       12 UNK         0.0203 
     72 H72        32.5792   27.1101   -2.6485 H         1 UNK         0.0888 
     73 H73        32.5711   27.0462   -0.8871 H         1 UNK         0.0888 
     74 H74        33.5971   25.9404   -1.8037 H         1 UNK         0.0888 
     75 H75        30.9328   25.8454    0.0362 H         1 UNK         0.3017 
     76 H76        29.3320   24.4963    0.4399 H         1 UNK         0.0873 
     77 H77        29.7482   22.4375   -1.7060 H         1 UNK         0.0745 
     78 H78        31.1174   22.7407   -0.6975 H         1 UNK         0.0745 
     79 H79        31.6011   21.1330    0.9441 H         1 UNK         0.0705 
     80 H80        30.5348   20.4850    2.1534 H         1 UNK         0.0705 
     81 H81        32.3493   23.5673    1.1103 H         1 UNK         0.1334 
     82 H82        32.4130   25.1490    5.0936 H         1 UNK         0.1417 
     83 H83        30.0664   21.6770    4.2122 H         1 UNK         0.1562 
     84 H84        31.2924   24.0535    6.8774 H         1 UNK         0.0748 
     85 H85        30.9756   22.3552    6.6418 H         1 UNK         0.0748 
     86 H86        29.6832   25.8977    6.8712 H         1 UNK         0.0940 
     87 H87        27.9515   25.7454    6.9900 H         1 UNK         0.0940 
     88 H88        29.6180   25.8427    4.4448 H         1 UNK         0.0703 
     89 H89        27.0491   24.6543    4.6740 H         1 UNK         0.3081 
     90 H90        27.0392   23.5857    1.6730 H         1 UNK         0.0719 
     91 H91        25.9233   23.1505    3.8312 H         1 UNK         0.0809 
     92 H92        24.7146   23.2610    2.5712 H         1 UNK         0.0809 
     93 H93        24.9441   24.6099    3.6750 H         1 UNK         0.0809 
     94 H94        26.0427   24.8026    0.1322 H         1 UNK         0.2990 
     95 H95        24.0096   26.5169   -0.5440 H         1 UNK         0.0690 
     96 H96        24.2836   28.9992   -0.9313 H         1 UNK         0.0788 
     97 H97        25.3220   29.0952    0.4910 H         1 UNK         0.0788 
     98 H98        23.6340   28.6416    0.6609 H         1 UNK         0.0788 
     99 H99        26.9237   27.0239   -0.6582 H         1 UNK         0.2993 
    100 H100       27.0828   25.4506   -3.7934 H         1 UNK         0.0949 
    101 H101       26.9706   27.8478   -4.5049 H         1 UNK         0.0767 
    102 H102       27.9710   28.3150   -3.1374 H         1 UNK         0.0767 
    103 H103       28.6320   27.2906   -4.4134 H         1 UNK         0.0767 
    104 H104       29.2339   26.2713   -2.2597 H         1 UNK         0.3013 
    105 H105       26.7096   27.3645    3.8749 H         1 UNK         0.3121 
    106 H106       27.5778   30.0268    4.8934 H         1 UNK         0.0774 
    107 H107       25.2574   30.6962    4.4254 H         1 UNK         0.0815 
    108 H108       24.8966   29.1324    3.7118 H         1 UNK         0.0815 
    109 H109       25.2468   29.2619    5.4353 H         1 UNK         0.0815 
    110 H110       28.3455   28.2390    2.2802 H         1 UNK         0.2987 
    111 H111       27.5927   29.6726    0.0044 H         1 UNK         0.0949 
    112 H112       28.6290   27.4079   -0.0093 H         1 UNK         0.0806 
    113 H113       29.5176   28.4934   -1.0698 H         1 UNK         0.0806 
    114 H114       30.1650   28.0829    0.5135 H         1 UNK         0.0806 
    115 H115       30.3028   30.3703    2.2101 H         1 UNK         0.3010 
    116 H116       30.6955   33.0203    1.2135 H         1 UNK         0.0829 
    117 H117       32.0132   31.7854   -0.5585 H         1 UNK         0.0813 
    118 H118       33.1001   32.6606    0.4998 H         1 UNK         0.0813 
    119 H119       32.9038   30.9222    0.6918 H         1 UNK         0.0813 
    120 H120       32.4163   34.0755    2.5517 H         1 UNK         0.3038 
    121 H121       32.2643   33.4502    5.2978 H         1 UNK         0.0769 
    122 H122       34.2986   35.1936    3.7996 H         1 UNK         0.0811 
    123 H123       34.0238   35.2149    5.5358 H         1 UNK         0.0811 
    124 H124       32.7475   35.7302    4.4473 H         1 UNK         0.0811 
    125 H125       34.5928   32.4137    2.8736 H         1 UNK         0.3204 
    126 H126       36.6061   31.3188    4.5532 H         1 UNK         0.0748 
    127 H127       37.2470   30.0677    2.4818 H         1 UNK         0.0771 
    128 H128       35.7360   30.5354    1.7147 H         1 UNK         0.0771 
    129 H129       36.9393   31.7587    2.1281 H         1 UNK         0.0771 
    130 H130       33.3794   30.1216    3.7910 H         1 UNK         0.2980 
    131 H131       33.9805   27.4137    4.7791 H         1 UNK         0.0545 
    132 H132       33.4246   30.3682    6.3839 H         1 UNK         0.3459 
    133 H133       32.7051   29.6554    7.8062 H         1 UNK         0.3459 
    134 H134       31.4137   28.6301    3.6611 H         1 UNK         0.0616 
    135 H135       31.4970   27.0325    4.3026 H         1 UNK         0.0616 
    136 H136       34.1950   25.7330    3.3464 H         1 UNK         0.0634 
    137 H137       33.9567   25.2495    1.6990 H         1 UNK         0.0634 
@<TRIPOS>BOND
     1    1    2 1    
     2    1   72 1    
     3    1   73 1    
     4    1   74 1    
     5    2    3 2    
     6    2    4 am   BACKBONE|DICT|INTERRES
     7    4    5 1    
     8    4   75 1    
     9    5    6 1    
    10    5   35 1    
    11    5   76 1    
    12    6    7 1    
    13    6   77 1    
    14    6   78 1    
    15    7    8 1    
    16    8    9 1    
    17    8   79 1    
    18    8   80 1    
    19    9   10 ar   
    20    9   14 ar   
    21   10   11 ar   
    22   10   81 1    
    23   11   12 ar   
    24   11   71 1    
    25   12   13 ar   
    26   12   82 1    
    27   13   14 ar   
    28   13   15 1    
    29   14   83 1    
    30   15   16 1    
    31   15   84 1    
    32   15   85 1    
    33   16   17 1    
    34   17   18 1    
    35   17   86 1    
    36   17   87 1    
    37   18   19 1    
    38   18   37 1    
    39   18   88 1    
    40   19   20 am   BACKBONE|DICT|INTERRES
    41   19   89 1    
    42   20   21 2    
    43   20   22 1    
    44   22   23 1    
    45   22   24 1    
    46   22   90 1    
    47   23   91 1    
    48   23   92 1    
    49   23   93 1    
    50   24   25 am   BACKBONE|DICT|INTERRES
    51   24   94 1    
    52   25   26 2    
    53   25   27 1    
    54   27   28 1    
    55   27   29 1    
    56   27   95 1    
    57   28   96 1    
    58   28   97 1    
    59   28   98 1    
    60   29   30 am   BACKBONE|DICT|INTERRES
    61   29   99 1    
    62   30   31 2    
    63   30   32 1    
    64   32   33 1    
    65   32   34 1    
    66   32  100 1    
    67   33  101 1    
    68   33  102 1    
    69   33  103 1    
    70   34   35 am   BACKBONE|DICT|INTERRES
    71   34  104 1    
    72   35   36 2    
    73   37   38 2    
    74   37   39 am   BACKBONE|DICT|INTERRES
    75   39   40 1    
    76   39  105 1    
    77   40   41 1    
    78   40   42 1    
    79   40  106 1    
    80   41  107 1    
    81   41  108 1    
    82   41  109 1    
    83   42   43 2    
    84   42   44 am   BACKBONE|DICT|INTERRES
    85   44   45 1    
    86   44  110 1    
    87   45   46 1    
    88   45   47 1    
    89   45  111 1    
    90   46  112 1    
    91   46  113 1    
    92   46  114 1    
    93   47   48 2    
    94   47   49 am   BACKBONE|DICT|INTERRES
    95   49   50 1    
    96   49  115 1    
    97   50   51 1    
    98   50   52 1    
    99   50  116 1    
   100   51  117 1    
   101   51  118 1    
   102   51  119 1    
   103   52   53 2    
   104   52   54 am   BACKBONE|DICT|INTERRES
   105   54   55 1    
   106   54  120 1    
   107   55   56 1    
   108   55   57 1    
   109   55  121 1    
   110   56  122 1    
   111   56  123 1    
   112   56  124 1    
   113   57   58 2    
   114   57   59 am   BACKBONE|DICT|INTERRES
   115   59   60 1    
   116   59  125 1    
   117   60   61 1    
   118   60   62 1    
   119   60  126 1    
   120   61  127 1    
   121   61  128 1    
   122   61  129 1    
   123   62   63 2    
   124   62   64 am   BACKBONE|DICT|INTERRES
   125   64   65 1    
   126   64  130 1    
   127   65   66 1    
   128   65   69 1    
   129   65  131 1    
   130   66   67 am   BACKBONE|DICT|INTERRES
   131   66   68 2    
   132   67  132 1    
   133   67  133 1    
   134   69   70 1    
   135   69  134 1    
   136   69  135 1    
   137   70   71 1    
   138   71  136 1    
   139   71  137 1    
@<TRIPOS>SUBSTRUCTURE
     1 UNK         1 GROUP             0       ****    0 ROOT    
