@<TRIPOS>MOLECULE
3R136
137   139    1
SMALL
USER_CHARGES


@<TRIPOS>ATOM
      1 CA         25.2426   26.9272    4.3589 C.3       0 UNK        -0.1979 
      2 C          25.4224   25.5127    3.8279 C.2       0 UNK         0.4864 
      3 O          24.7557   24.5949    4.3093 O.2       0 UNK        -0.5359 
      4 N          26.3108   25.3317    2.8442 N.am      1 UNK        -0.4318 
      5 CA         26.5606   24.0539    2.1723 C.3       1 UNK         0.0824 
      6 C6         28.0602   23.8628    1.8311 C.3       12 UNK        -0.0944 
      7 S7         29.0155   23.3513    3.2962 S.3       12 UNK        -0.2672 
      8 C8         30.6021   22.8563    2.5530 C.3       12 UNK         0.0333 
      9 C9         31.5438   24.0406    2.3870 C.ar      12 UNK        -0.0807 
     10 C10        32.4399   24.3703    3.4092 C.ar      12 UNK        -0.0894 
     11 C11        33.3308   25.4362    3.2539 C.ar      12 UNK        -0.0804 
     12 C12        33.3002   26.1947    2.0803 C.ar      12 UNK        -0.0824 
     13 C13        32.4054   25.8797    1.0543 C.ar      12 UNK        -0.0762 
     14 C14        31.5413   24.7896    1.2061 C.ar      12 UNK        -0.0782 
     15 C15        32.3944   26.7107   -0.2207 C.3       12 UNK         0.0230 
     16 S16        31.2211   28.0982   -0.1096 S.3       12 UNK        -0.2608 
     17 C17        29.6561   27.2351   -0.4552 C.3       12 UNK        -0.0989 
     18 CA         28.4274   28.1707   -0.4328 C.3       5 UNK         0.0716 
     19 N          27.2897   27.5361   -1.0879 N.am      5 UNK        -0.4135 
     20 C          26.7731   27.8790   -2.2716 C.2       4 UNK         0.5031 
     21 O          27.2110   28.7820   -2.9873 O.2       4 UNK        -0.5229 
     22 CA         25.5718   27.0336   -2.7219 C.3       4 UNK         0.0329 
     23 CB         24.9717   27.4698   -4.0766 C.3       4 UNK        -0.2001 
     24 N          25.9129   25.6072   -2.6998 N.am      4 UNK        -0.4303 
     25 C          26.7660   24.9443   -3.4990 C.2       3 UNK         0.5044 
     26 O          27.3413   25.4533   -4.4615 O.2       3 UNK        -0.5152 
     27 CA         27.0597   23.4629   -3.1661 C.3       3 UNK         0.0319 
     28 CB         28.5632   23.2563   -2.9073 C.3       3 UNK        -0.2001 
     29 N          26.3212   22.9500   -2.0089 N.am      3 UNK        -0.4354 
     30 C          25.0033   22.7130   -1.9556 C.2       2 UNK         0.4964 
     31 O          24.2600   22.7748   -2.9348 O.2       2 UNK        -0.5047 
     32 CA         24.4010   22.4011   -0.5713 C.3       2 UNK         0.0288 
     33 CB         24.0178   20.9148   -0.4767 C.3       2 UNK        -0.2113 
     34 N          25.2544   22.7467    0.5757 N.am      2 UNK        -0.4145 
     35 C          25.6955   23.9722    0.9025 C.2       1 UNK         0.5006 
     36 O          25.4949   24.9830    0.2205 O.2       1 UNK        -0.5103 
     37 C          27.9887   28.5094    0.9993 C.2       5 UNK         0.5055 
     38 O          27.2364   27.7356    1.5978 O.2       5 UNK        -0.5220 
     39 N          28.4630   29.6503    1.5171 N.am      6 UNK        -0.4450 
     40 CA         28.0635   30.2189    2.8089 C.3       6 UNK         0.0367 
     41 CB         28.6603   31.6296    2.9474 C.3       6 UNK        -0.1929 
     42 C          28.4354   29.3666    4.0339 C.2       6 UNK         0.5070 
     43 O          27.7460   29.4610    5.0490 O.2       6 UNK        -0.5237 
     44 N          29.5133   28.5730    3.9219 N.am      7 UNK        -0.4739 
     45 CA         30.0582   27.6789    4.9565 C.3       7 UNK         0.0276 
     46 CB         29.0829   26.5147    5.2217 C.3       7 UNK        -0.1927 
     47 C          30.4653   28.4190    6.2510 C.2       7 UNK         0.5013 
     48 O          30.3060   27.8836    7.3501 O.2       7 UNK        -0.5193 
     49 N          30.9661   29.6486    6.0872 N.am      8 UNK        -0.4253 
     50 CA         31.3700   30.5614    7.1522 C.3       8 UNK         0.0242 
     51 CB         30.1931   31.4954    7.5065 C.3       8 UNK        -0.2000 
     52 C          32.6427   31.2805    6.6898 C.2       8 UNK         0.4948 
     53 O          33.6733   30.6241    6.5473 O.2       8 UNK        -0.5275 
     54 N          32.5603   32.5907    6.4104 N.am      9 UNK        -0.4246 
     55 CA         33.6681   33.4235    5.9155 C.3       9 UNK         0.0261 
     56 CB         33.1857   34.8743    5.7572 C.3       9 UNK        -0.1959 
     57 C          34.2991   32.9193    4.6025 C.2       9 UNK         0.5033 
     58 O          35.5018   33.0935    4.4004 O.2       9 UNK        -0.5390 
     59 N          33.4902   32.2508    3.7670 N.am      10 UNK        -0.4215 
     60 CA         33.9025   31.5497    2.5474 C.3       10 UNK         0.0240 
     61 CB         32.6530   30.9995    1.8391 C.3       10 UNK        -0.1982 
     62 C          34.9262   30.4186    2.7753 C.2       10 UNK         0.4970 
     63 O          35.6367   30.0674    1.8326 O.2       10 UNK        -0.4916 
     64 N          34.9971   29.8769    3.9995 N.am      11 UNK        -0.4279 
     65 CA         35.9979   28.8814    4.4108 C.3       11 UNK         0.1003 
     66 C          37.3974   29.4886    4.7234 C.2       11 UNK         0.5709 
     67 N          37.5695   30.8063    4.7595 N.am      11 UNK        -0.7358 
     68 O          38.3544   28.7448    4.9256 O.2       11 UNK        -0.4999 
     69 C69        35.4966   27.9953    5.5844 C.3       12 UNK        -0.0954 
     70 S70        33.8672   27.2420    5.2634 S.3       12 UNK        -0.2268 
     71 C71        34.3495   25.7591    4.3343 C.3       12 UNK         0.0203 
     72 H72        25.5169   26.9710    5.4125 H         1 UNK         0.0888 
     73 H73        25.8595   27.6464    3.8223 H         1 UNK         0.0888 
     74 H74        24.2025   27.2367    4.2621 H         1 UNK         0.0888 
     75 H75        26.7533   26.1476    2.4242 H         1 UNK         0.3017 
     76 H76        26.2541   23.2348    2.8272 H         1 UNK         0.0873 
     77 H77        28.4862   24.7795    1.4250 H         1 UNK         0.0745 
     78 H78        28.1960   23.0920    1.0698 H         1 UNK         0.0745 
     79 H79        30.4333   22.3622    1.5951 H         1 UNK         0.0705 
     80 H80        31.0660   22.1078    3.1971 H         1 UNK         0.0705 
     81 H81        32.4535   23.7866    4.3196 H         1 UNK         0.1334 
     82 H82        33.9795   27.0291    1.9654 H         1 UNK         0.1417 
     83 H83        30.8636   24.5238    0.4071 H         1 UNK         0.1562 
     84 H84        32.1555   26.0868   -1.0834 H         1 UNK         0.0748 
     85 H85        33.3913   27.1131   -0.4076 H         1 UNK         0.0748 
     86 H86        29.5265   26.4152    0.2486 H         1 UNK         0.0940 
     87 H87        29.7513   26.7765   -1.4413 H         1 UNK         0.0940 
     88 H88        28.6726   29.1018   -0.9487 H         1 UNK         0.0703 
     89 H89        26.8125   26.8384   -0.5283 H         1 UNK         0.3081 
     90 H90        24.7969   27.1717   -1.9659 H         1 UNK         0.0719 
     91 H91        24.6037   28.4950   -4.0226 H         1 UNK         0.0809 
     92 H92        25.7043   27.4352   -4.8831 H         1 UNK         0.0809 
     93 H93        24.1304   26.8371   -4.3594 H         1 UNK         0.0809 
     94 H94        25.5464   25.1016   -1.9015 H         1 UNK         0.2990 
     95 H95        26.7753   22.8738   -4.0403 H         1 UNK         0.0690 
     96 H96        28.7945   22.2074   -2.7202 H         1 UNK         0.0788 
     97 H97        28.9088   23.8363   -2.0504 H         1 UNK         0.0788 
     98 H98        29.1565   23.5651   -3.7691 H         1 UNK         0.0788 
     99 H99        26.8459   22.8540   -1.1530 H         1 UNK         0.2993 
    100 H100       23.4889   22.9959   -0.4865 H         1 UNK         0.0949 
    101 H101       24.8947   20.2680   -0.5274 H         1 UNK         0.0767 
    102 H102       23.4920   20.6978    0.4535 H         1 UNK         0.0767 
    103 H103       23.3539   20.6280   -1.2938 H         1 UNK         0.0767 
    104 H104       25.4910   21.9786    1.1880 H         1 UNK         0.3013 
    105 H105       29.0967   30.2036    0.9577 H         1 UNK         0.3121 
    106 H106       26.9749   30.3090    2.8022 H         1 UNK         0.0774 
    107 H107       28.3574   32.0908    3.8888 H         1 UNK         0.0815 
    108 H108       29.7501   31.6122    2.9300 H         1 UNK         0.0815 
    109 H109       28.3209   32.2859    2.1459 H         1 UNK         0.0815 
    110 H110       29.9959   28.5645    3.0340 H         1 UNK         0.2987 
    111 H111       30.9718   27.2509    4.5413 H         1 UNK         0.0949 
    112 H112       28.7601   26.0567    4.2883 H         1 UNK         0.0806 
    113 H113       29.5558   25.7361    5.8211 H         1 UNK         0.0806 
    114 H114       28.1917   26.8451    5.7557 H         1 UNK         0.0806 
    115 H115       31.0947   29.9789    5.1430 H         1 UNK         0.3010 
    116 H116       31.6436   29.9928    8.0437 H         1 UNK         0.0829 
    117 H117       29.3507   30.9222    7.8949 H         1 UNK         0.0813 
    118 H118       30.4724   32.2115    8.2807 H         1 UNK         0.0813 
    119 H119       29.8316   32.0522    6.6411 H         1 UNK         0.0813 
    120 H120       31.6768   33.0565    6.5607 H         1 UNK         0.3038 
    121 H121       34.4520   33.4046    6.6756 H         1 UNK         0.0769 
    122 H122       33.9955   35.5189    5.4119 H         1 UNK         0.0811 
    123 H123       32.8335   35.2821    6.7050 H         1 UNK         0.0811 
    124 H124       32.3740   34.9551    5.0330 H         1 UNK         0.0811 
    125 H125       32.5157   32.1876    4.0174 H         1 UNK         0.3204 
    126 H126       34.3748   32.2845    1.8922 H         1 UNK         0.0748 
    127 H127       32.9232   30.5095    0.9024 H         1 UNK         0.0771 
    128 H128       32.1311   30.2620    2.4502 H         1 UNK         0.0771 
    129 H129       31.9509   31.7956    1.5912 H         1 UNK         0.0771 
    130 H130       34.4030   30.2213    4.7468 H         1 UNK         0.2980 
    131 H131       36.1584   28.2146    3.5619 H         1 UNK         0.0545 
    132 H132       38.4857   31.1750    4.9583 H         1 UNK         0.3459 
    133 H133       36.7977   31.4412    4.5940 H         1 UNK         0.3459 
    134 H134       36.2118   27.2006    5.8046 H         1 UNK         0.0616 
    135 H135       35.4153   28.5875    6.4972 H         1 UNK         0.0616 
    136 H136       34.4648   24.9251    5.0281 H         1 UNK         0.0634 
    137 H137       35.3236   25.9067    3.8663 H         1 UNK         0.0634 
@<TRIPOS>BOND
     1    1    2 1    
     2    1   72 1    
     3    1   73 1    
     4    1   74 1    
     5    2    3 2    
     6    2    4 am   BACKBONE|DICT|INTERRES
     7    4    5 1    
     8    4   75 1    
     9    5    6 1    
    10    5   35 1    
    11    5   76 1    
    12    6    7 1    
    13    6   77 1    
    14    6   78 1    
    15    7    8 1    
    16    8    9 1    
    17    8   79 1    
    18    8   80 1    
    19    9   10 ar   
    20    9   14 ar   
    21   10   11 ar   
    22   10   81 1    
    23   11   12 ar   
    24   11   71 1    
    25   12   13 ar   
    26   12   82 1    
    27   13   14 ar   
    28   13   15 1    
    29   14   83 1    
    30   15   16 1    
    31   15   84 1    
    32   15   85 1    
    33   16   17 1    
    34   17   18 1    
    35   17   86 1    
    36   17   87 1    
    37   18   19 1    
    38   18   37 1    
    39   18   88 1    
    40   19   20 am   BACKBONE|DICT|INTERRES
    41   19   89 1    
    42   20   21 2    
    43   20   22 1    
    44   22   23 1    
    45   22   24 1    
    46   22   90 1    
    47   23   91 1    
    48   23   92 1    
    49   23   93 1    
    50   24   25 am   BACKBONE|DICT|INTERRES
    51   24   94 1    
    52   25   26 2    
    53   25   27 1    
    54   27   28 1    
    55   27   29 1    
    56   27   95 1    
    57   28   96 1    
    58   28   97 1    
    59   28   98 1    
    60   29   30 am   BACKBONE|DICT|INTERRES
    61   29   99 1    
    62   30   31 2    
    63   30   32 1    
    64   32   33 1    
    65   32   34 1    
    66   32  100 1    
    67   33  101 1    
    68   33  102 1    
    69   33  103 1    
    70   34   35 am   BACKBONE|DICT|INTERRES
    71   34  104 1    
    72   35   36 2    
    73   37   38 2    
    74   37   39 am   BACKBONE|DICT|INTERRES
    75   39   40 1    
    76   39  105 1    
    77   40   41 1    
    78   40   42 1    
    79   40  106 1    
    80   41  107 1    
    81   41  108 1    
    82   41  109 1    
    83   42   43 2    
    84   42   44 am   BACKBONE|DICT|INTERRES
    85   44   45 1    
    86   44  110 1    
    87   45   46 1    
    88   45   47 1    
    89   45  111 1    
    90   46  112 1    
    91   46  113 1    
    92   46  114 1    
    93   47   48 2    
    94   47   49 am   BACKBONE|DICT|INTERRES
    95   49   50 1    
    96   49  115 1    
    97   50   51 1    
    98   50   52 1    
    99   50  116 1    
   100   51  117 1    
   101   51  118 1    
   102   51  119 1    
   103   52   53 2    
   104   52   54 am   BACKBONE|DICT|INTERRES
   105   54   55 1    
   106   54  120 1    
   107   55   56 1    
   108   55   57 1    
   109   55  121 1    
   110   56  122 1    
   111   56  123 1    
   112   56  124 1    
   113   57   58 2    
   114   57   59 am   BACKBONE|DICT|INTERRES
   115   59   60 1    
   116   59  125 1    
   117   60   61 1    
   118   60   62 1    
   119   60  126 1    
   120   61  127 1    
   121   61  128 1    
   122   61  129 1    
   123   62   63 2    
   124   62   64 am   BACKBONE|DICT|INTERRES
   125   64   65 1    
   126   64  130 1    
   127   65   66 1    
   128   65   69 1    
   129   65  131 1    
   130   66   67 am   BACKBONE|DICT|INTERRES
   131   66   68 2    
   132   67  132 1    
   133   67  133 1    
   134   69   70 1    
   135   69  134 1    
   136   69  135 1    
   137   70   71 1    
   138   71  136 1    
   139   71  137 1    
@<TRIPOS>SUBSTRUCTURE
     1 UNK         1 GROUP             0       ****    0 ROOT    
