@<TRIPOS>MOLECULE
3R136
137   139    1
SMALL
USER_CHARGES


@<TRIPOS>ATOM
      1 CA         26.8138   20.5263    1.4664 C.3       0 UNK        -0.1979 
      2 C          27.9629   21.0187    0.5993 C.2       0 UNK         0.4864 
      3 O          28.5497   20.2297   -0.1434 O.2       0 UNK        -0.5359 
      4 N          28.2916   22.3136    0.6941 N.am      1 UNK        -0.4318 
      5 CA         29.3172   22.9744   -0.1202 C.3       1 UNK         0.0824 
      6 C6         29.8567   24.2566    0.5739 C.3       12 UNK        -0.0944 
      7 S7         31.6726   24.4075    0.4512 S.3       12 UNK        -0.2672 
      8 C8         32.2806   23.1834    1.6650 C.3       12 UNK         0.0333 
      9 C9         31.7058   23.4055    3.0563 C.ar      12 UNK        -0.0807 
     10 C10        32.2808   24.3331    3.9291 C.ar      12 UNK        -0.0894 
     11 C11        31.7092   24.5737    5.1837 C.ar      12 UNK        -0.0804 
     12 C12        30.5496   23.8873    5.5585 C.ar      12 UNK        -0.0824 
     13 C13        29.9668   22.9614    4.6878 C.ar      12 UNK        -0.0762 
     14 C14        30.5695   22.6995    3.4567 C.ar      12 UNK        -0.0782 
     15 C15        28.6559   22.2772    5.0354 C.3       12 UNK         0.0230 
     16 S16        27.2679   23.0679    4.1569 S.3       12 UNK        -0.2608 
     17 C17        27.0791   24.6204    5.0947 C.3       12 UNK        -0.0989 
     18 CA         27.6743   25.8640    4.3777 C.3       5 UNK         0.0716 
     19 N          27.0225   26.1163    3.0869 N.am      5 UNK        -0.4135 
     20 C          27.5564   26.8143    2.0777 C.2       4 UNK         0.5031 
     21 O          28.6948   27.2888    2.0943 O.2       4 UNK        -0.5229 
     22 CA         26.6592   27.0627    0.8615 C.3       4 UNK         0.0329 
     23 CB         25.7015   28.2404    1.1263 C.3       4 UNK        -0.2001 
     24 N          27.5177   27.3594   -0.2807 N.am      4 UNK        -0.4303 
     25 C          27.1754   27.2646   -1.5704 C.2       3 UNK         0.5044 
     26 O          26.0507   26.9483   -1.9592 O.2       3 UNK        -0.5152 
     27 CA         28.2790   27.5447   -2.6040 C.3       3 UNK         0.0319 
     28 CB         29.2829   28.6207   -2.1500 C.3       3 UNK        -0.2001 
     29 N          28.9938   26.3008   -2.8767 N.am      3 UNK        -0.4354 
     30 C          28.6779   25.4257   -3.8416 C.2       2 UNK         0.4964 
     31 O          27.8394   25.6340   -4.7192 O.2       2 UNK        -0.5047 
     32 CA         29.4155   24.0733   -3.8096 C.3       2 UNK         0.0288 
     33 CB         30.7162   24.1450   -4.6262 C.3       2 UNK        -0.2113 
     34 N          29.7186   23.6179   -2.4477 N.am      2 UNK        -0.4145 
     35 C          28.7925   23.2833   -1.5372 C.2       1 UNK         0.5006 
     36 O          27.5806   23.2637   -1.7702 O.2       1 UNK        -0.5103 
     37 C          27.5839   27.1226    5.2713 C.2       5 UNK         0.5055 
     38 O          26.9088   27.0941    6.3033 O.2       5 UNK        -0.5220 
     39 N          28.2199   28.2194    4.8492 N.am      6 UNK        -0.4450 
     40 CA         28.2016   29.5077    5.5326 C.3       6 UNK         0.0367 
     41 CB         26.9513   30.3017    5.1112 C.3       6 UNK        -0.1929 
     42 C          29.4728   30.2849    5.1901 C.2       6 UNK         0.5070 
     43 O          30.0110   30.1244    4.0923 O.2       6 UNK        -0.5237 
     44 N          29.8982   31.1473    6.1217 N.am      7 UNK        -0.4739 
     45 CA         31.0164   32.0775    5.9522 C.3       7 UNK         0.0276 
     46 CB         31.2690   32.8095    7.2797 C.3       7 UNK        -0.1927 
     47 C          30.7576   33.0856    4.8196 C.2       7 UNK         0.5013 
     48 O          29.6040   33.4445    4.5703 O.2       7 UNK        -0.5193 
     49 N          31.8345   33.5019    4.1424 N.am      8 UNK        -0.4253 
     50 CA         31.8869   34.3700    2.9554 C.3       8 UNK         0.0242 
     51 CB         31.2080   35.7343    3.1914 C.3       8 UNK        -0.2000 
     52 C          31.3770   33.6969    1.6669 C.2       8 UNK         0.4948 
     53 O          31.9554   33.9418    0.6075 O.2       8 UNK        -0.5275 
     54 N          30.3504   32.8394    1.7670 N.am      9 UNK        -0.4246 
     55 CA         29.9378   31.9128    0.7096 C.3       9 UNK         0.0261 
     56 CB         28.5632   31.3050    1.0415 C.3       9 UNK        -0.1959 
     57 C          31.0009   30.8205    0.5051 C.2       9 UNK         0.5033 
     58 O          31.4454   30.6063   -0.6232 O.2       9 UNK        -0.5390 
     59 N          31.4235   30.1975    1.6095 N.am      10 UNK        -0.4215 
     60 CA         32.5423   29.2676    1.6934 C.3       10 UNK         0.0240 
     61 CB         32.0474   27.8318    1.4192 C.3       10 UNK        -0.1982 
     62 C          33.2070   29.4414    3.0697 C.2       10 UNK         0.4970 
     63 O          33.1847   30.5430    3.6249 O.2       10 UNK        -0.4916 
     64 N          33.7865   28.3528    3.5894 N.am      11 UNK        -0.4279 
     65 CA         34.3169   28.2086    4.9571 C.3       11 UNK         0.1003 
     66 C          35.5592   29.0889    5.2934 C.2       11 UNK         0.5709 
     67 N          36.2507   29.6581    4.3134 N.am      11 UNK        -0.7358 
     68 O          35.9282   29.2302    6.4572 O.2       11 UNK        -0.4999 
     69 C69        33.2100   28.2864    6.0544 C.3       12 UNK        -0.0954 
     70 S70        31.7376   27.2680    5.6933 S.3       12 UNK        -0.2268 
     71 C71        32.3288   25.6025    6.1143 C.3       12 UNK         0.0203 
     72 H72        27.1993   19.9729    2.3222 H         1 UNK         0.0888 
     73 H73        26.2054   21.3508    1.8373 H         1 UNK         0.0888 
     74 H74        26.1651   19.8640    0.8937 H         1 UNK         0.0888 
     75 H75        27.7560   22.9139    1.3044 H         1 UNK         0.3017 
     76 H76        30.1352   22.2604   -0.2372 H         1 UNK         0.0873 
     77 H77        29.4186   25.1629    0.1525 H         1 UNK         0.0745 
     78 H78        29.5717   24.3002    1.6243 H         1 UNK         0.0745 
     79 H79        33.3693   23.2402    1.7050 H         1 UNK         0.0705 
     80 H80        32.0447   22.1780    1.3133 H         1 UNK         0.0705 
     81 H81        33.1589   24.8846    3.6231 H         1 UNK         0.1334 
     82 H82        30.0874   24.0953    6.5138 H         1 UNK         0.1417 
     83 H83        30.1157   21.9868    2.7825 H         1 UNK         0.1562 
     84 H84        28.4772   22.2885    6.1117 H         1 UNK         0.0748 
     85 H85        28.7048   21.2265    4.7455 H         1 UNK         0.0748 
     86 H86        27.5354   24.4936    6.0783 H         1 UNK         0.0940 
     87 H87        26.0134   24.7641    5.2833 H         1 UNK         0.0940 
     88 H88        28.7353   25.6748    4.1991 H         1 UNK         0.0703 
     89 H89        26.0735   25.7828    3.0031 H         1 UNK         0.3081 
     90 H90        26.0887   26.1546    0.6546 H         1 UNK         0.0719 
     91 H91        26.2469   29.1612    1.3372 H         1 UNK         0.0809 
     92 H92        25.0506   28.4262    0.2719 H         1 UNK         0.0809 
     93 H93        25.0569   28.0402    1.9830 H         1 UNK         0.0809 
     94 H94        28.4661   27.6008   -0.0191 H         1 UNK         0.2990 
     95 H95        27.7949   27.9067   -3.5137 H         1 UNK         0.0690 
     96 H96        29.9835   28.8622   -2.9495 H         1 UNK         0.0788 
     97 H97        29.8719   28.3085   -1.2875 H         1 UNK         0.0788 
     98 H98        28.7719   29.5472   -1.8859 H         1 UNK         0.0788 
     99 H99        29.6997   26.0305   -2.2084 H         1 UNK         0.2993 
    100 H100       28.7596   23.3325   -4.2725 H         1 UNK         0.0949 
    101 H101       31.4251   24.8552   -4.1984 H         1 UNK         0.0767 
    102 H102       31.2053   23.1720   -4.6797 H         1 UNK         0.0767 
    103 H103       30.5157   24.4616   -5.6509 H         1 UNK         0.0767 
    104 H104       30.6918   23.6151   -2.1742 H         1 UNK         0.3013 
    105 H105       28.7733   28.1840    3.9958 H         1 UNK         0.3121 
    106 H106       28.1832   29.3430    6.6123 H         1 UNK         0.0774 
    107 H107       26.9301   31.2828    5.5874 H         1 UNK         0.0815 
    108 H108       26.9245   30.4624    4.0326 H         1 UNK         0.0815 
    109 H109       26.0354   29.7837    5.3957 H         1 UNK         0.0815 
    110 H110       29.3660   31.2393    6.9746 H         1 UNK         0.2987 
    111 H111       31.9006   31.4893    5.7021 H         1 UNK         0.0949 
    112 H112       30.4055   33.4026    7.5837 H         1 UNK         0.0806 
    113 H113       31.4967   32.1086    8.0831 H         1 UNK         0.0806 
    114 H114       32.1177   33.4898    7.1962 H         1 UNK         0.0806 
    115 H115       32.7230   33.0894    4.3966 H         1 UNK         0.3010 
    116 H116       32.9488   34.5650    2.7957 H         1 UNK         0.0829 
    117 H117       31.5916   36.2193    4.0890 H         1 UNK         0.0813 
    118 H118       31.3955   36.4073    2.3538 H         1 UNK         0.0813 
    119 H119       30.1263   35.6451    3.2926 H         1 UNK         0.0813 
    120 H120       29.9134   32.7363    2.6768 H         1 UNK         0.3038 
    121 H121       29.8452   32.4748   -0.2223 H         1 UNK         0.0769 
    122 H122       28.2312   30.6364    0.2469 H         1 UNK         0.0811 
    123 H123       27.8038   32.0791    1.1512 H         1 UNK         0.0811 
    124 H124       28.5821   30.7232    1.9630 H         1 UNK         0.0811 
    125 H125       30.9895   30.4118    2.5076 H         1 UNK         0.3204 
    126 H126       33.2889   29.5366    0.9436 H         1 UNK         0.0748 
    127 H127       31.3949   27.4711    2.2164 H         1 UNK         0.0771 
    128 H128       31.4856   27.7754    0.4875 H         1 UNK         0.0771 
    129 H129       32.8779   27.1319    1.3256 H         1 UNK         0.0771 
    130 H130       33.7723   27.5061    3.0419 H         1 UNK         0.2980 
    131 H131       34.7128   27.1938    4.9839 H         1 UNK         0.0545 
    132 H132       35.9594   29.5508    3.3555 H         1 UNK         0.3459 
    133 H133       37.0594   30.2155    4.5383 H         1 UNK         0.3459 
    134 H134       33.6059   27.9828    7.0251 H         1 UNK         0.0616 
    135 H135       32.8735   29.3170    6.1740 H         1 UNK         0.0616 
    136 H136       33.4153   25.5504    6.0401 H         1 UNK         0.0634 
    137 H137       32.0810   25.3856    7.1544 H         1 UNK         0.0634 
@<TRIPOS>BOND
     1    1    2 1    
     2    1   72 1    
     3    1   73 1    
     4    1   74 1    
     5    2    3 2    
     6    2    4 am   BACKBONE|DICT|INTERRES
     7    4    5 1    
     8    4   75 1    
     9    5    6 1    
    10    5   35 1    
    11    5   76 1    
    12    6    7 1    
    13    6   77 1    
    14    6   78 1    
    15    7    8 1    
    16    8    9 1    
    17    8   79 1    
    18    8   80 1    
    19    9   10 ar   
    20    9   14 ar   
    21   10   11 ar   
    22   10   81 1    
    23   11   12 ar   
    24   11   71 1    
    25   12   13 ar   
    26   12   82 1    
    27   13   14 ar   
    28   13   15 1    
    29   14   83 1    
    30   15   16 1    
    31   15   84 1    
    32   15   85 1    
    33   16   17 1    
    34   17   18 1    
    35   17   86 1    
    36   17   87 1    
    37   18   19 1    
    38   18   37 1    
    39   18   88 1    
    40   19   20 am   BACKBONE|DICT|INTERRES
    41   19   89 1    
    42   20   21 2    
    43   20   22 1    
    44   22   23 1    
    45   22   24 1    
    46   22   90 1    
    47   23   91 1    
    48   23   92 1    
    49   23   93 1    
    50   24   25 am   BACKBONE|DICT|INTERRES
    51   24   94 1    
    52   25   26 2    
    53   25   27 1    
    54   27   28 1    
    55   27   29 1    
    56   27   95 1    
    57   28   96 1    
    58   28   97 1    
    59   28   98 1    
    60   29   30 am   BACKBONE|DICT|INTERRES
    61   29   99 1    
    62   30   31 2    
    63   30   32 1    
    64   32   33 1    
    65   32   34 1    
    66   32  100 1    
    67   33  101 1    
    68   33  102 1    
    69   33  103 1    
    70   34   35 am   BACKBONE|DICT|INTERRES
    71   34  104 1    
    72   35   36 2    
    73   37   38 2    
    74   37   39 am   BACKBONE|DICT|INTERRES
    75   39   40 1    
    76   39  105 1    
    77   40   41 1    
    78   40   42 1    
    79   40  106 1    
    80   41  107 1    
    81   41  108 1    
    82   41  109 1    
    83   42   43 2    
    84   42   44 am   BACKBONE|DICT|INTERRES
    85   44   45 1    
    86   44  110 1    
    87   45   46 1    
    88   45   47 1    
    89   45  111 1    
    90   46  112 1    
    91   46  113 1    
    92   46  114 1    
    93   47   48 2    
    94   47   49 am   BACKBONE|DICT|INTERRES
    95   49   50 1    
    96   49  115 1    
    97   50   51 1    
    98   50   52 1    
    99   50  116 1    
   100   51  117 1    
   101   51  118 1    
   102   51  119 1    
   103   52   53 2    
   104   52   54 am   BACKBONE|DICT|INTERRES
   105   54   55 1    
   106   54  120 1    
   107   55   56 1    
   108   55   57 1    
   109   55  121 1    
   110   56  122 1    
   111   56  123 1    
   112   56  124 1    
   113   57   58 2    
   114   57   59 am   BACKBONE|DICT|INTERRES
   115   59   60 1    
   116   59  125 1    
   117   60   61 1    
   118   60   62 1    
   119   60  126 1    
   120   61  127 1    
   121   61  128 1    
   122   61  129 1    
   123   62   63 2    
   124   62   64 am   BACKBONE|DICT|INTERRES
   125   64   65 1    
   126   64  130 1    
   127   65   66 1    
   128   65   69 1    
   129   65  131 1    
   130   66   67 am   BACKBONE|DICT|INTERRES
   131   66   68 2    
   132   67  132 1    
   133   67  133 1    
   134   69   70 1    
   135   69  134 1    
   136   69  135 1    
   137   70   71 1    
   138   71  136 1    
   139   71  137 1    
@<TRIPOS>SUBSTRUCTURE
     1 UNK         1 GROUP             0       ****    0 ROOT    
