@<TRIPOS>MOLECULE
3R136
137   139    1
SMALL
USER_CHARGES


@<TRIPOS>ATOM
      1 CA         26.9550   19.3438    3.1135 C.3       0 UNK        -0.1979 
      2 C          27.0954   20.4071    2.0348 C.2       0 UNK         0.4864 
      3 O          26.2071   21.2473    1.8859 O.2       0 UNK        -0.5359 
      4 N          28.2103   20.3849    1.2899 N.am      1 UNK        -0.4318 
      5 CA         28.5278   21.3193    0.1999 C.3       1 UNK         0.0824 
      6 C6         29.7699   20.8674   -0.6105 C.3       12 UNK        -0.0944 
      7 S7         31.2771   20.6138    0.3969 S.3       12 UNK        -0.2672 
      8 C8         32.4890   21.7000   -0.4236 C.3       12 UNK         0.0333 
      9 C9         32.3642   23.1502    0.0235 C.ar      12 UNK        -0.0807 
     10 C10        32.9996   23.5785    1.1939 C.ar      12 UNK        -0.0894 
     11 C11        32.9132   24.9127    1.6037 C.ar      12 UNK        -0.0804 
     12 C12        32.1818   25.8167    0.8302 C.ar      12 UNK        -0.0824 
     13 C13        31.5296   25.4040   -0.3384 C.ar      12 UNK        -0.0762 
     14 C14        31.6343   24.0682   -0.7385 C.ar      12 UNK        -0.0782 
     15 C15        30.6511   26.3622   -1.1388 C.3       12 UNK         0.0230 
     16 S16        31.2399   28.0885   -1.1027 S.3       12 UNK        -0.2608 
     17 C17        29.7424   29.0402   -1.5326 C.3       12 UNK        -0.0989 
     18 CA         28.6793   29.2062   -0.4022 C.3       5 UNK         0.0716 
     19 N          27.7586   28.0607   -0.3189 N.am      5 UNK        -0.4135 
     20 C          26.7943   27.8490   -1.2325 C.2       4 UNK         0.5031 
     21 O          26.5051   28.6653   -2.1094 O.2       4 UNK        -0.5229 
     22 CA         26.0417   26.5049   -1.2334 C.3       4 UNK         0.0329 
     23 CB         26.6236   25.5754   -2.3113 C.3       4 UNK        -0.2001 
     24 N          26.0531   25.8123    0.0518 N.am      4 UNK        -0.4303 
     25 C          25.3025   26.1647    1.1055 C.2       3 UNK         0.5044 
     26 O          24.4818   27.0827    1.0788 O.2       3 UNK        -0.5152 
     27 CA         25.5017   25.3830    2.4206 C.3       3 UNK         0.0319 
     28 CB         24.3581   24.3761    2.6230 C.3       3 UNK        -0.2001 
     29 N          26.7816   24.6758    2.5401 N.am      3 UNK        -0.4354 
     30 C          27.9941   25.2371    2.4280 C.2       2 UNK         0.4964 
     31 O          28.1727   26.4213    2.1473 O.2       2 UNK        -0.5047 
     32 CA         29.2074   24.3076    2.5645 C.3       2 UNK         0.0288 
     33 CB         29.5754   24.1074    4.0427 C.3       2 UNK        -0.2113 
     34 N          29.0337   23.0030    1.9221 N.am      2 UNK        -0.4145 
     35 C          28.6495   22.7889    0.6530 C.2       1 UNK         0.5006 
     36 O          28.3667   23.6861   -0.1435 O.2       1 UNK        -0.5103 
     37 C          29.2625   29.6892    0.9453 C.2       5 UNK         0.5055 
     38 O          30.0422   30.6446    0.9321 O.2       5 UNK        -0.5220 
     39 N          28.8812   29.0859    2.0839 N.am      6 UNK        -0.4450 
     40 CA         29.3591   29.4140    3.4379 C.3       6 UNK         0.0367 
     41 CB         28.6574   28.5248    4.4769 C.3       6 UNK        -0.1929 
     42 C          29.2349   30.8915    3.8458 C.2       6 UNK         0.5070 
     43 O          30.0572   31.3608    4.6296 O.2       6 UNK        -0.5237 
     44 N          28.2615   31.6144    3.2753 N.am      7 UNK        -0.4739 
     45 CA         28.1002   33.0646    3.4296 C.3       7 UNK         0.0276 
     46 CB         26.8037   33.5042    2.7308 C.3       7 UNK        -0.1927 
     47 C          29.2979   33.8870    2.9094 C.2       7 UNK         0.5013 
     48 O          29.5235   34.9907    3.4075 O.2       7 UNK        -0.5193 
     49 N          30.0399   33.3387    1.9373 N.am      8 UNK        -0.4253 
     50 CA         31.2771   33.9052    1.4028 C.3       8 UNK         0.0242 
     51 CB         31.2317   33.8647   -0.1341 C.3       8 UNK        -0.2000 
     52 C          32.5054   33.1429    1.9233 C.2       8 UNK         0.4948 
     53 O          33.4965   33.7793    2.2825 O.2       8 UNK        -0.5275 
     54 N          32.4333   31.8030    1.9433 N.am      9 UNK        -0.4246 
     55 CA         33.5460   30.9193    2.3080 C.3       9 UNK         0.0261 
     56 CB         33.2593   29.4987    1.7956 C.3       9 UNK        -0.1959 
     57 C          33.8820   30.8937    3.8095 C.2       9 UNK         0.5033 
     58 O          35.0196   30.5700    4.1519 O.2       9 UNK        -0.5390 
     59 N          32.9019   31.2034    4.6725 N.am      10 UNK        -0.4215 
     60 CA         32.9714   31.2370    6.1414 C.3       10 UNK         0.0240 
     61 CB         33.9992   32.2822    6.6265 C.3       10 UNK        -0.1982 
     62 C          33.1687   29.8640    6.8194 C.2       10 UNK         0.4970 
     63 O          33.3801   29.8262    8.0332 O.2       10 UNK        -0.4916 
     64 N          33.0864   28.7669    6.0558 N.am      11 UNK        -0.4279 
     65 CA         33.1569   27.3889    6.5582 C.3       11 UNK         0.1003 
     66 C          31.8552   26.9257    7.2738 C.2       11 UNK         0.5709 
     67 N          31.9181   25.8320    8.0219 N.am      11 UNK        -0.7358 
     68 O          30.7921   27.5320    7.1536 O.2       11 UNK        -0.4999 
     69 C69        33.6301   26.4046    5.4558 C.3       12 UNK        -0.0954 
     70 S70        32.5290   26.2863    4.0068 S.3       12 UNK        -0.2268 
     71 C71        33.6261   25.3802    2.8670 C.3       12 UNK         0.0203 
     72 H72        26.0623   18.7451    2.9349 H         1 UNK         0.0888 
     73 H73        27.8136   18.6730    3.1397 H         1 UNK         0.0888 
     74 H74        26.8606   19.8129    4.0925 H         1 UNK         0.0888 
     75 H75        28.9115   19.6782    1.4648 H         1 UNK         0.3017 
     76 H76        27.6748   21.2939   -0.4819 H         1 UNK         0.0873 
     77 H77        29.5481   19.9203   -1.1047 H         1 UNK         0.0745 
     78 H78        29.9717   21.5698   -1.4209 H         1 UNK         0.0745 
     79 H79        33.4909   21.3372   -0.1891 H         1 UNK         0.0705 
     80 H80        32.3893   21.6175   -1.5070 H         1 UNK         0.0705 
     81 H81        33.5655   22.8695    1.7827 H         1 UNK         0.1334 
     82 H82        32.1009   26.8408    1.1639 H         1 UNK         0.1417 
     83 H83        31.1276   23.7377   -1.6348 H         1 UNK         0.1562 
     84 H84        29.6481   26.2986   -0.7219 H         1 UNK         0.0748 
     85 H85        30.5787   26.0415   -2.1791 H         1 UNK         0.0748 
     86 H86        29.2984   28.6123   -2.4325 H         1 UNK         0.0940 
     87 H87        30.0857   30.0313   -1.8349 H         1 UNK         0.0940 
     88 H88        28.0640   30.0596   -0.6960 H         1 UNK         0.0703 
     89 H89        27.9402   27.3611    0.3936 H         1 UNK         0.3081 
     90 H90        25.0027   26.7136   -1.4982 H         1 UNK         0.0719 
     91 H91        26.5562   26.0332   -3.2992 H         1 UNK         0.0809 
     92 H92        27.6753   25.3523   -2.1290 H         1 UNK         0.0809 
     93 H93        26.0835   24.6295   -2.3558 H         1 UNK         0.0809 
     94 H94        26.7192   25.0541    0.1545 H         1 UNK         0.2990 
     95 H95        25.4627   26.1131    3.2314 H         1 UNK         0.0690 
     96 H96        23.3861   24.8683    2.5666 H         1 UNK         0.0788 
     97 H97        24.4196   23.8955    3.5996 H         1 UNK         0.0788 
     98 H98        24.3736   23.5934    1.8630 H         1 UNK         0.0788 
     99 H99        26.7307   23.6790    2.7026 H         1 UNK         0.2993 
    100 H100       30.0418   24.8018    2.0706 H         1 UNK         0.0949 
    101 H101       29.7011   25.0661    4.5482 H         1 UNK         0.0767 
    102 H102       28.8068   23.5521    4.5816 H         1 UNK         0.0767 
    103 H103       30.5176   23.5683    4.1444 H         1 UNK         0.0767 
    104 H104       29.2521   22.1925    2.4822 H         1 UNK         0.3013 
    105 H105       28.3188   28.2413    2.0293 H         1 UNK         0.3121 
    106 H106       30.4219   29.1726    3.4690 H         1 UNK         0.0774 
    107 H107       28.9754   27.4871    4.3868 H         1 UNK         0.0815 
    108 H108       28.9033   28.8348    5.4939 H         1 UNK         0.0815 
    109 H109       27.5723   28.5601    4.3764 H         1 UNK         0.0815 
    110 H110       27.6281   31.1462    2.6437 H         1 UNK         0.2987 
    111 H111       28.0052   33.2746    4.4972 H         1 UNK         0.0949 
    112 H112       26.8315   33.2969    1.6602 H         1 UNK         0.0806 
    113 H113       25.9342   32.9976    3.1501 H         1 UNK         0.0806 
    114 H114       26.6402   34.5762    2.8507 H         1 UNK         0.0806 
    115 H115       29.7950   32.4094    1.6069 H         1 UNK         0.3010 
    116 H116       31.3796   34.9487    1.7086 H         1 UNK         0.0829 
    117 H117       31.1250   32.8468   -0.5120 H         1 UNK         0.0813 
    118 H118       30.3982   34.4523   -0.5193 H         1 UNK         0.0813 
    119 H119       32.1455   34.2786   -0.5627 H         1 UNK         0.0813 
    120 H120       31.5896   31.3546    1.5909 H         1 UNK         0.3038 
    121 H121       34.4385   31.2814    1.7928 H         1 UNK         0.0769 
    122 H122       32.3370   29.0933    2.2085 H         1 UNK         0.0811 
    123 H123       34.0647   28.8122    2.0610 H         1 UNK         0.0811 
    124 H124       33.1723   29.4859    0.7096 H         1 UNK         0.0811 
    125 H125       31.9780   31.4143    4.3038 H         1 UNK         0.3204 
    126 H126       31.9896   31.5798    6.4704 H         1 UNK         0.0748 
    127 H127       33.9268   32.4328    7.7043 H         1 UNK         0.0771 
    128 H128       35.0233   31.9759    6.4118 H         1 UNK         0.0771 
    129 H129       33.8321   33.2505    6.1546 H         1 UNK         0.0771 
    130 H130       32.8834   28.8687    5.0742 H         1 UNK         0.2980 
    131 H131       33.9316   27.3798    7.3276 H         1 UNK         0.0545 
    132 H132       32.7796   25.3204    8.1295 H         1 UNK         0.3459 
    133 H133       31.0842   25.5130    8.4893 H         1 UNK         0.3459 
    134 H134       33.7613   25.4031    5.8688 H         1 UNK         0.0616 
    135 H135       34.6181   26.7101    5.1073 H         1 UNK         0.0616 
    136 H136       34.0535   24.5282    3.3979 H         1 UNK         0.0634 
    137 H137       34.4596   26.0252    2.5860 H         1 UNK         0.0634 
@<TRIPOS>BOND
     1    1    2 1    
     2    1   72 1    
     3    1   73 1    
     4    1   74 1    
     5    2    3 2    
     6    2    4 am   BACKBONE|DICT|INTERRES
     7    4    5 1    
     8    4   75 1    
     9    5    6 1    
    10    5   35 1    
    11    5   76 1    
    12    6    7 1    
    13    6   77 1    
    14    6   78 1    
    15    7    8 1    
    16    8    9 1    
    17    8   79 1    
    18    8   80 1    
    19    9   10 ar   
    20    9   14 ar   
    21   10   11 ar   
    22   10   81 1    
    23   11   12 ar   
    24   11   71 1    
    25   12   13 ar   
    26   12   82 1    
    27   13   14 ar   
    28   13   15 1    
    29   14   83 1    
    30   15   16 1    
    31   15   84 1    
    32   15   85 1    
    33   16   17 1    
    34   17   18 1    
    35   17   86 1    
    36   17   87 1    
    37   18   19 1    
    38   18   37 1    
    39   18   88 1    
    40   19   20 am   BACKBONE|DICT|INTERRES
    41   19   89 1    
    42   20   21 2    
    43   20   22 1    
    44   22   23 1    
    45   22   24 1    
    46   22   90 1    
    47   23   91 1    
    48   23   92 1    
    49   23   93 1    
    50   24   25 am   BACKBONE|DICT|INTERRES
    51   24   94 1    
    52   25   26 2    
    53   25   27 1    
    54   27   28 1    
    55   27   29 1    
    56   27   95 1    
    57   28   96 1    
    58   28   97 1    
    59   28   98 1    
    60   29   30 am   BACKBONE|DICT|INTERRES
    61   29   99 1    
    62   30   31 2    
    63   30   32 1    
    64   32   33 1    
    65   32   34 1    
    66   32  100 1    
    67   33  101 1    
    68   33  102 1    
    69   33  103 1    
    70   34   35 am   BACKBONE|DICT|INTERRES
    71   34  104 1    
    72   35   36 2    
    73   37   38 2    
    74   37   39 am   BACKBONE|DICT|INTERRES
    75   39   40 1    
    76   39  105 1    
    77   40   41 1    
    78   40   42 1    
    79   40  106 1    
    80   41  107 1    
    81   41  108 1    
    82   41  109 1    
    83   42   43 2    
    84   42   44 am   BACKBONE|DICT|INTERRES
    85   44   45 1    
    86   44  110 1    
    87   45   46 1    
    88   45   47 1    
    89   45  111 1    
    90   46  112 1    
    91   46  113 1    
    92   46  114 1    
    93   47   48 2    
    94   47   49 am   BACKBONE|DICT|INTERRES
    95   49   50 1    
    96   49  115 1    
    97   50   51 1    
    98   50   52 1    
    99   50  116 1    
   100   51  117 1    
   101   51  118 1    
   102   51  119 1    
   103   52   53 2    
   104   52   54 am   BACKBONE|DICT|INTERRES
   105   54   55 1    
   106   54  120 1    
   107   55   56 1    
   108   55   57 1    
   109   55  121 1    
   110   56  122 1    
   111   56  123 1    
   112   56  124 1    
   113   57   58 2    
   114   57   59 am   BACKBONE|DICT|INTERRES
   115   59   60 1    
   116   59  125 1    
   117   60   61 1    
   118   60   62 1    
   119   60  126 1    
   120   61  127 1    
   121   61  128 1    
   122   61  129 1    
   123   62   63 2    
   124   62   64 am   BACKBONE|DICT|INTERRES
   125   64   65 1    
   126   64  130 1    
   127   65   66 1    
   128   65   69 1    
   129   65  131 1    
   130   66   67 am   BACKBONE|DICT|INTERRES
   131   66   68 2    
   132   67  132 1    
   133   67  133 1    
   134   69   70 1    
   135   69  134 1    
   136   69  135 1    
   137   70   71 1    
   138   71  136 1    
   139   71  137 1    
@<TRIPOS>SUBSTRUCTURE
     1 UNK         1 GROUP             0       ****    0 ROOT    
