@<TRIPOS>MOLECULE
3R136
137   139    1
SMALL
USER_CHARGES


@<TRIPOS>ATOM
      1 CA         29.2056   24.6029    5.2327 C.3       0 UNK        -0.1979 
      2 C          28.2614   24.0646    4.1728 C.2       0 UNK         0.4864 
      3 O          27.0773   23.8601    4.4471 O.2       0 UNK        -0.5359 
      4 N          28.7711   23.8438    2.9541 N.am      1 UNK        -0.4318 
      5 CA         28.0239   23.3069    1.8099 C.3       1 UNK         0.0824 
      6 C6         28.9493   22.6130    0.7748 C.3       12 UNK        -0.0944 
      7 S7         29.9926   21.3166    1.5301 S.3       12 UNK        -0.2672 
      8 C8         31.6798   21.8996    1.1579 C.3       12 UNK         0.0333 
      9 C9         31.9752   23.2683    1.7581 C.ar      12 UNK        -0.0807 
     10 C10        32.2047   23.4058    3.1308 C.ar      12 UNK        -0.0894 
     11 C11        32.4739   24.6622    3.6853 C.ar      12 UNK        -0.0804 
     12 C12        32.5098   25.7841    2.8513 C.ar      12 UNK        -0.0824 
     13 C13        32.3166   25.6536    1.4729 C.ar      12 UNK        -0.0762 
     14 C14        32.0425   24.3951    0.9333 C.ar      12 UNK        -0.0782 
     15 C15        32.4442   26.8662    0.5636 C.3       12 UNK         0.0230 
     16 S16        31.0876   28.0451    0.8140 S.3       12 UNK        -0.2608 
     17 C17        29.6587   27.1854    0.0723 C.3       12 UNK        -0.0989 
     18 CA         28.8274   28.1012   -0.8717 C.3       5 UNK         0.0716 
     19 N          27.8928   27.3371   -1.6923 N.am      5 UNK        -0.4135 
     20 C          28.2171   26.5944   -2.7556 C.2       4 UNK         0.5031 
     21 O          29.3687   26.4937   -3.1833 O.2       4 UNK        -0.5229 
     22 CA         27.0735   25.8392   -3.4568 C.3       4 UNK         0.0329 
     23 CB         27.5726   24.6568   -4.3127 C.3       4 UNK        -0.2001 
     24 N          26.0763   25.3647   -2.4944 N.am      4 UNK        -0.4303 
     25 C          24.7672   25.2264   -2.7529 C.2       3 UNK         0.5044 
     26 O          24.2536   25.5154   -3.8347 O.2       3 UNK        -0.5152 
     27 CA         23.8654   24.6617   -1.6352 C.3       3 UNK         0.0319 
     28 CB         23.6107   23.1625   -1.8615 C.3       3 UNK        -0.2001 
     29 N          24.4076   24.8534   -0.2890 N.am      3 UNK        -0.4354 
     30 C          24.5415   26.0395    0.3190 C.2       2 UNK         0.4964 
     31 O          24.0875   27.0873   -0.1406 O.2       2 UNK        -0.5047 
     32 CA         25.3252   26.0792    1.6472 C.3       2 UNK         0.0288 
     33 CB         24.3687   26.2967    2.8311 C.3       2 UNK        -0.2113 
     34 N          26.1780   24.9179    1.9389 N.am      2 UNK        -0.4145 
     35 C          27.1530   24.4098    1.1711 C.2       1 UNK         0.5006 
     36 O          27.3836   24.7917    0.0231 O.2       1 UNK        -0.5103 
     37 C          28.0100   29.1361   -0.0800 C.2       5 UNK         0.5055 
     38 O          26.8118   28.9383    0.1317 O.2       5 UNK        -0.5220 
     39 N          28.6855   30.1902    0.3952 N.am      6 UNK        -0.4450 
     40 CA         28.1730   31.1045    1.4215 C.3       6 UNK         0.0367 
     41 CB         28.9923   32.4052    1.3926 C.3       6 UNK        -0.1929 
     42 C          28.2100   30.4861    2.8346 C.2       6 UNK         0.5070 
     43 O          27.5449   31.0031    3.7329 O.2       6 UNK        -0.5237 
     44 N          28.9970   29.4112    3.0079 N.am      7 UNK        -0.4739 
     45 CA         29.2691   28.6326    4.2222 C.3       7 UNK         0.0276 
     46 CB         27.9849   28.0115    4.8069 C.3       7 UNK        -0.1927 
     47 C          30.0702   29.4084    5.2798 C.2       7 UNK         0.5013 
     48 O          31.1433   28.9530    5.6764 O.2       7 UNK        -0.5193 
     49 N          29.5552   30.5699    5.6984 N.am      8 UNK        -0.4253 
     50 CA         30.2245   31.5072    6.5988 C.3       8 UNK         0.0242 
     51 CB         29.2154   32.5662    7.0700 C.3       8 UNK        -0.2000 
     52 C          31.4155   32.1702    5.8916 C.2       8 UNK         0.4948 
     53 O          31.2631   32.6248    4.7547 O.2       8 UNK        -0.5275 
     54 N          32.5751   32.1968    6.5647 N.am      9 UNK        -0.4246 
     55 CA         33.8802   32.7340    6.1386 C.3       9 UNK         0.0261 
     56 CB         33.8086   34.2534    5.8906 C.3       9 UNK        -0.1959 
     57 C          34.5253   32.0122    4.9382 C.2       9 UNK         0.5033 
     58 O          35.7253   31.7368    4.9750 O.2       9 UNK        -0.5390 
     59 N          33.7255   31.6930    3.9141 N.am      10 UNK        -0.4215 
     60 CA         34.1071   31.0239    2.6667 C.3       10 UNK         0.0240 
     61 CB         32.8820   30.9827    1.7413 C.3       10 UNK        -0.1982 
     62 C          34.7139   29.6177    2.8391 C.2       10 UNK         0.4970 
     63 O          35.4170   29.1590    1.9383 O.2       10 UNK        -0.4916 
     64 N          34.4612   28.9728    3.9858 N.am      11 UNK        -0.4279 
     65 CA         35.1327   27.7377    4.4178 C.3       11 UNK         0.1003 
     66 C          36.6474   27.9098    4.7492 C.2       11 UNK         0.5709 
     67 N          37.1523   29.1203    4.9658 N.am      11 UNK        -0.7358 
     68 O          37.3833   26.9275    4.7986 O.2       11 UNK        -0.4999 
     69 C69        34.3594   27.0775    5.5924 C.3       12 UNK        -0.0954 
     70 S70        34.4352   25.2526    5.5771 S.3       12 UNK        -0.2268 
     71 C71        32.7141   24.8011    5.1841 C.3       12 UNK         0.0203 
     72 H72        28.6506   24.9522    6.1029 H         1 UNK         0.0888 
     73 H73        29.8909   23.8213    5.5586 H         1 UNK         0.0888 
     74 H74        29.7822   25.4394    4.8410 H         1 UNK         0.0888 
     75 H75        29.7518   24.0212    2.7821 H         1 UNK         0.3017 
     76 H76        27.3373   22.5430    2.1819 H         1 UNK         0.0873 
     77 H77        29.5761   23.3429    0.2619 H         1 UNK         0.0745 
     78 H78        28.3491   22.1409   -0.0052 H         1 UNK         0.0745 
     79 H79        31.8200   21.9125    0.0758 H         1 UNK         0.0705 
     80 H80        32.3958   21.1743    1.5470 H         1 UNK         0.0705 
     81 H81        32.1679   22.5308    3.7658 H         1 UNK         0.1334 
     82 H82        32.7048   26.7614    3.2685 H         1 UNK         0.1417 
     83 H83        31.8897   24.2911   -0.1326 H         1 UNK         0.1562 
     84 H84        32.4852   26.5747   -0.4872 H         1 UNK         0.0748 
     85 H85        33.3881   27.3704    0.7766 H         1 UNK         0.0748 
     86 H86        29.0394   26.7794    0.8740 H         1 UNK         0.0940 
     87 H87        30.0256   26.3189   -0.4792 H         1 UNK         0.0940 
     88 H88        29.4984   28.6405   -1.5441 H         1 UNK         0.0703 
     89 H89        26.9265   27.4189   -1.3993 H         1 UNK         0.3081 
     90 H90        26.6064   26.5677   -4.1227 H         1 UNK         0.0719 
     91 H91        28.2821   24.9898   -5.0713 H         1 UNK         0.0809 
     92 H92        28.0736   23.9060   -3.7005 H         1 UNK         0.0809 
     93 H93        26.7506   24.1687   -4.8364 H         1 UNK         0.0809 
     94 H94        26.4368   25.1121   -1.5753 H         1 UNK         0.2990 
     95 H95        22.9079   25.1838   -1.6918 H         1 UNK         0.0690 
     96 H96        22.9141   22.7617   -1.1249 H         1 UNK         0.0788 
     97 H97        24.5332   22.5830   -1.8043 H         1 UNK         0.0788 
     98 H98        23.1754   22.9852   -2.8461 H         1 UNK         0.0788 
     99 H99        24.8035   24.0422    0.1622 H         1 UNK         0.2993 
    100 H100       25.9886   26.9433    1.5894 H         1 UNK         0.0949 
    101 H101       23.7459   27.1791    2.6759 H         1 UNK         0.0767 
    102 H102       23.7016   25.4451    2.9700 H         1 UNK         0.0767 
    103 H103       24.9166   26.4504    3.7612 H         1 UNK         0.0767 
    104 H104       26.1192   24.5467    2.8837 H         1 UNK         0.3013 
    105 H105       29.6651   30.2771    0.1614 H         1 UNK         0.3121 
    106 H106       27.1327   31.3461    1.1924 H         1 UNK         0.0774 
    107 H107       28.6031   33.1255    2.1137 H         1 UNK         0.0815 
    108 H108       30.0385   32.2308    1.6458 H         1 UNK         0.0815 
    109 H109       28.9553   32.8785    0.4114 H         1 UNK         0.0815 
    110 H110       29.5248   29.1070    2.2001 H         1 UNK         0.2987 
    111 H111       29.9082   27.8079    3.9012 H         1 UNK         0.0949 
    112 H112       28.2100   27.4097    5.6877 H         1 UNK         0.0806 
    113 H113       27.4970   27.3592    4.0823 H         1 UNK         0.0806 
    114 H114       27.2623   28.7673    5.1147 H         1 UNK         0.0806 
    115 H115       28.7094   30.8910    5.2341 H         1 UNK         0.3010 
    116 H116       30.5807   30.9514    7.4689 H         1 UNK         0.0829 
    117 H117       28.8127   33.1387    6.2330 H         1 UNK         0.0813 
    118 H118       28.3776   32.1092    7.5969 H         1 UNK         0.0813 
    119 H119       29.6829   33.2743    7.7555 H         1 UNK         0.0813 
    120 H120       32.5838   31.7652    7.4792 H         1 UNK         0.3038 
    121 H121       34.5501   32.5763    6.9856 H         1 UNK         0.0769 
    122 H122       34.7971   34.6576    5.6679 H         1 UNK         0.0811 
    123 H123       33.4339   34.7806    6.7679 H         1 UNK         0.0811 
    124 H124       33.1615   34.5019    5.0489 H         1 UNK         0.0811 
    125 H125       32.7520   31.9851    4.0019 H         1 UNK         0.3204 
    126 H126       34.8734   31.6393    2.1913 H         1 UNK         0.0748 
    127 H127       33.1045   30.4555    0.8123 H         1 UNK         0.0771 
    128 H128       32.0413   30.4770    2.2174 H         1 UNK         0.0771 
    129 H129       32.5582   31.9880    1.4717 H         1 UNK         0.0771 
    130 H130       33.8633   29.4182    4.6658 H         1 UNK         0.2980 
    131 H131       35.0929   27.0607    3.5625 H         1 UNK         0.0545 
    132 H132       36.5719   29.9520    4.9256 H         1 UNK         0.3459 
    133 H133       38.1342   29.2094    5.1722 H         1 UNK         0.3459 
    134 H134       34.7256   27.4346    6.5569 H         1 UNK         0.0616 
    135 H135       33.3108   27.3733    5.5665 H         1 UNK         0.0616 
    136 H136       32.0263   25.5321    5.6093 H         1 UNK         0.0634 
    137 H137       32.4946   23.8586    5.6877 H         1 UNK         0.0634 
@<TRIPOS>BOND
     1    1    2 1    
     2    1   72 1    
     3    1   73 1    
     4    1   74 1    
     5    2    3 2    
     6    2    4 am   BACKBONE|DICT|INTERRES
     7    4    5 1    
     8    4   75 1    
     9    5    6 1    
    10    5   35 1    
    11    5   76 1    
    12    6    7 1    
    13    6   77 1    
    14    6   78 1    
    15    7    8 1    
    16    8    9 1    
    17    8   79 1    
    18    8   80 1    
    19    9   10 ar   
    20    9   14 ar   
    21   10   11 ar   
    22   10   81 1    
    23   11   12 ar   
    24   11   71 1    
    25   12   13 ar   
    26   12   82 1    
    27   13   14 ar   
    28   13   15 1    
    29   14   83 1    
    30   15   16 1    
    31   15   84 1    
    32   15   85 1    
    33   16   17 1    
    34   17   18 1    
    35   17   86 1    
    36   17   87 1    
    37   18   19 1    
    38   18   37 1    
    39   18   88 1    
    40   19   20 am   BACKBONE|DICT|INTERRES
    41   19   89 1    
    42   20   21 2    
    43   20   22 1    
    44   22   23 1    
    45   22   24 1    
    46   22   90 1    
    47   23   91 1    
    48   23   92 1    
    49   23   93 1    
    50   24   25 am   BACKBONE|DICT|INTERRES
    51   24   94 1    
    52   25   26 2    
    53   25   27 1    
    54   27   28 1    
    55   27   29 1    
    56   27   95 1    
    57   28   96 1    
    58   28   97 1    
    59   28   98 1    
    60   29   30 am   BACKBONE|DICT|INTERRES
    61   29   99 1    
    62   30   31 2    
    63   30   32 1    
    64   32   33 1    
    65   32   34 1    
    66   32  100 1    
    67   33  101 1    
    68   33  102 1    
    69   33  103 1    
    70   34   35 am   BACKBONE|DICT|INTERRES
    71   34  104 1    
    72   35   36 2    
    73   37   38 2    
    74   37   39 am   BACKBONE|DICT|INTERRES
    75   39   40 1    
    76   39  105 1    
    77   40   41 1    
    78   40   42 1    
    79   40  106 1    
    80   41  107 1    
    81   41  108 1    
    82   41  109 1    
    83   42   43 2    
    84   42   44 am   BACKBONE|DICT|INTERRES
    85   44   45 1    
    86   44  110 1    
    87   45   46 1    
    88   45   47 1    
    89   45  111 1    
    90   46  112 1    
    91   46  113 1    
    92   46  114 1    
    93   47   48 2    
    94   47   49 am   BACKBONE|DICT|INTERRES
    95   49   50 1    
    96   49  115 1    
    97   50   51 1    
    98   50   52 1    
    99   50  116 1    
   100   51  117 1    
   101   51  118 1    
   102   51  119 1    
   103   52   53 2    
   104   52   54 am   BACKBONE|DICT|INTERRES
   105   54   55 1    
   106   54  120 1    
   107   55   56 1    
   108   55   57 1    
   109   55  121 1    
   110   56  122 1    
   111   56  123 1    
   112   56  124 1    
   113   57   58 2    
   114   57   59 am   BACKBONE|DICT|INTERRES
   115   59   60 1    
   116   59  125 1    
   117   60   61 1    
   118   60   62 1    
   119   60  126 1    
   120   61  127 1    
   121   61  128 1    
   122   61  129 1    
   123   62   63 2    
   124   62   64 am   BACKBONE|DICT|INTERRES
   125   64   65 1    
   126   64  130 1    
   127   65   66 1    
   128   65   69 1    
   129   65  131 1    
   130   66   67 am   BACKBONE|DICT|INTERRES
   131   66   68 2    
   132   67  132 1    
   133   67  133 1    
   134   69   70 1    
   135   69  134 1    
   136   69  135 1    
   137   70   71 1    
   138   71  136 1    
   139   71  137 1    
@<TRIPOS>SUBSTRUCTURE
     1 UNK         1 GROUP             0       ****    0 ROOT    
