@<TRIPOS>MOLECULE
3R136
137   139    1
SMALL
USER_CHARGES


@<TRIPOS>ATOM
      1 CA         30.6619   27.1983    0.7497 C.3       0 UNK        -0.1979 
      2 C          30.0982   25.8073    0.5179 C.2       0 UNK         0.4864 
      3 O          28.8852   25.6196    0.5508 O.2       0 UNK        -0.5359 
      4 N          30.9687   24.8225    0.2603 N.am      1 UNK        -0.4318 
      5 CA         30.5835   23.4209    0.0477 C.3       1 UNK         0.0824 
      6 C6         31.8164   22.4833    0.1060 C.3       12 UNK        -0.0944 
      7 S7         31.4106   20.8632    0.8349 S.3       12 UNK        -0.2672 
      8 C8         31.8449   21.1319    2.5864 C.3       12 UNK         0.0333 
      9 C9         30.9505   22.1599    3.2730 C.ar      12 UNK        -0.0807 
     10 C10        31.5057   23.3041    3.8564 C.ar      12 UNK        -0.0894 
     11 C11        30.6970   24.2172    4.5417 C.ar      12 UNK        -0.0804 
     12 C12        29.3198   23.9895    4.6242 C.ar      12 UNK        -0.0824 
     13 C13        28.7469   22.8660    4.0198 C.ar      12 UNK        -0.0762 
     14 C14        29.5699   21.9499    3.3571 C.ar      12 UNK        -0.0782 
     15 C15        27.2471   22.6147    4.1098 C.3       12 UNK         0.0230 
     16 S16        26.3022   23.6326    2.9274 S.3       12 UNK        -0.2608 
     17 C17        26.0452   25.1740    3.8720 C.3       12 UNK        -0.0989 
     18 CA         26.7818   26.3836    3.2471 C.3       5 UNK         0.0716 
     19 N          26.2090   26.7532    1.9508 N.am      5 UNK        -0.4135 
     20 C          26.6328   27.7379    1.1483 C.2       4 UNK         0.5031 
     21 O          27.5427   28.5155    1.4430 O.2       4 UNK        -0.5229 
     22 CA         25.9372   27.8541   -0.2251 C.3       4 UNK         0.0329 
     23 CB         26.5270   28.9857   -1.0883 C.3       4 UNK        -0.2001 
     24 N          25.9887   26.6058   -0.9947 N.am      4 UNK        -0.4303 
     25 C          25.2441   25.5147   -0.7833 C.2       3 UNK         0.5044 
     26 O          24.4067   25.4411    0.1178 O.2       3 UNK        -0.5152 
     27 CA         25.4429   24.2970   -1.7090 C.3       3 UNK         0.0319 
     28 CB         24.4452   24.3385   -2.8828 C.3       3 UNK        -0.2001 
     29 N          26.8132   24.0548   -2.1888 N.am      3 UNK        -0.4354 
     30 C          27.5752   24.7885   -3.0121 C.2       2 UNK         0.4964 
     31 O          27.2421   25.8890   -3.4551 O.2       2 UNK        -0.5047 
     32 CA         28.9547   24.1963   -3.3718 C.3       2 UNK         0.0288 
     33 CB         29.6804   25.0049   -4.4639 C.3       2 UNK        -0.2113 
     34 N          29.8195   24.1149   -2.1941 N.am      2 UNK        -0.4145 
     35 C          29.7233   23.1988   -1.2191 C.2       1 UNK         0.5006 
     36 O          28.9506   22.2394   -1.2746 O.2       1 UNK        -0.5103 
     37 C          26.7952   27.5646    4.2368 C.2       5 UNK         0.5055 
     38 O          25.8037   28.2911    4.3405 O.2       5 UNK        -0.5220 
     39 N          27.9146   27.6942    4.9620 N.am      6 UNK        -0.4450 
     40 CA         28.2112   28.7074    5.9813 C.3       6 UNK         0.0367 
     41 CB         27.1874   28.6745    7.1367 C.3       6 UNK        -0.1929 
     42 C          28.4346   30.1260    5.4204 C.2       6 UNK         0.5070 
     43 O          28.4327   31.0834    6.1960 O.2       6 UNK        -0.5237 
     44 N          28.6727   30.2528    4.1061 N.am      7 UNK        -0.4739 
     45 CA         29.1408   31.4853    3.4711 C.3       7 UNK         0.0276 
     46 CB         28.9851   31.3732    1.9453 C.3       7 UNK        -0.1927 
     47 C          30.6060   31.7285    3.8589 C.2       7 UNK         0.5013 
     48 O          31.4851   31.0264    3.3547 O.2       7 UNK        -0.5193 
     49 N          30.8417   32.6901    4.7622 N.am      8 UNK        -0.4253 
     50 CA         32.1325   32.9718    5.4074 C.3       8 UNK         0.0242 
     51 CB         31.9624   34.1454    6.3853 C.3       8 UNK        -0.2000 
     52 C          33.3115   33.2379    4.4537 C.2       8 UNK         0.4948 
     53 O          34.4539   32.9731    4.8270 O.2       8 UNK        -0.5275 
     54 N          33.0218   33.7106    3.2342 N.am      9 UNK        -0.4246 
     55 CA         33.9948   33.8840    2.1528 C.3       9 UNK         0.0261 
     56 CB         33.3299   34.6546    1.0002 C.3       9 UNK        -0.1959 
     57 C          34.6001   32.5627    1.6350 C.2       9 UNK         0.5033 
     58 O          35.6908   32.5990    1.0628 O.2       9 UNK        -0.5390 
     59 N          33.8958   31.4384    1.8287 N.am      10 UNK        -0.4215 
     60 CA         34.3131   30.1016    1.4041 C.3       10 UNK         0.0240 
     61 CB         33.2852   29.5508    0.4038 C.3       10 UNK        -0.1982 
     62 C          34.4821   29.1545    2.6021 C.2       10 UNK         0.4970 
     63 O          35.4863   28.4443    2.6632 O.2       10 UNK        -0.4916 
     64 N          33.5173   29.1599    3.5313 N.am      11 UNK        -0.4279 
     65 CA         33.5359   28.3562    4.7644 C.3       11 UNK         0.1003 
     66 C          34.4633   28.9130    5.8835 C.2       11 UNK         0.5709 
     67 N          34.9765   30.1338    5.7954 N.am      11 UNK        -0.7358 
     68 O          34.7359   28.2101    6.8536 O.2       11 UNK        -0.4999 
     69 C69        32.1005   28.1012    5.2996 C.3       12 UNK        -0.0954 
     70 S70        31.1674   26.9395    4.2471 S.3       12 UNK        -0.2268 
     71 C71        31.3171   25.4208    5.2371 C.3       12 UNK         0.0203 
     72 H72        30.0926   27.7129    1.5230 H         1 UNK         0.0888 
     73 H73        31.7004   27.1536    1.0756 H         1 UNK         0.0888 
     74 H74        30.6018   27.7883   -0.1642 H         1 UNK         0.0888 
     75 H75        31.9582   25.0229    0.2360 H         1 UNK         0.3017 
     76 H76        29.9258   23.1786    0.8842 H         1 UNK         0.0873 
     77 H77        32.2531   22.3328   -0.8833 H         1 UNK         0.0745 
     78 H78        32.6107   22.9257    0.7094 H         1 UNK         0.0745 
     79 H79        32.8954   21.4189    2.6535 H         1 UNK         0.0705 
     80 H80        31.7554   20.1827    3.1163 H         1 UNK         0.0705 
     81 H81        32.5726   23.4725    3.8007 H         1 UNK         0.1334 
     82 H82        28.6961   24.6833    5.1681 H         1 UNK         0.1417 
     83 H83        29.1383   21.0679    2.9031 H         1 UNK         0.1562 
     84 H84        26.8960   22.7847    5.1285 H         1 UNK         0.0748 
     85 H85        27.0333   21.5659    3.8981 H         1 UNK         0.0748 
     86 H86        26.3587   25.0164    4.9053 H         1 UNK         0.0940 
     87 H87        24.9721   25.3697    3.9225 H         1 UNK         0.0940 
     88 H88        27.8175   26.0957    3.0531 H         1 UNK         0.0703 
     89 H89        25.4744   26.1503    1.5951 H         1 UNK         0.3081 
     90 H90        24.8903   28.0966   -0.0314 H         1 UNK         0.0719 
     91 H91        27.5775   28.8053   -1.3204 H         1 UNK         0.0809 
     92 H92        25.9878   29.0903   -2.0299 H         1 UNK         0.0809 
     93 H93        26.4663   29.9448   -0.5722 H         1 UNK         0.0809 
     94 H94        26.6431   26.5706   -1.7703 H         1 UNK         0.2990 
     95 H95        25.1968   23.4212   -1.1062 H         1 UNK         0.0690 
     96 H96        24.5066   23.4341   -3.4881 H         1 UNK         0.0788 
     97 H97        24.6206   25.1933   -3.5367 H         1 UNK         0.0788 
     98 H98        23.4196   24.4153   -2.5191 H         1 UNK         0.0788 
     99 H99        27.2471   23.2118   -1.8241 H         1 UNK         0.2993 
    100 H100       28.7866   23.1889   -3.7596 H         1 UNK         0.0949 
    101 H101       29.8961   26.0237   -4.1389 H         1 UNK         0.0767 
    102 H102       30.6237   24.5353   -4.7438 H         1 UNK         0.0767 
    103 H103       29.0732   25.0721   -5.3677 H         1 UNK         0.0767 
    104 H104       30.4503   24.8890   -2.0470 H         1 UNK         0.3013 
    105 H105       28.6858   27.0730    4.7548 H         1 UNK         0.3121 
    106 H106       29.1730   28.4146    6.4046 H         1 UNK         0.0774 
    107 H107       27.5206   29.2936    7.9705 H         1 UNK         0.0815 
    108 H108       26.2122   29.0515    6.8280 H         1 UNK         0.0815 
    109 H109       27.0525   27.6636    7.5209 H         1 UNK         0.0815 
    110 H110       28.6373   29.4297    3.5193 H         1 UNK         0.2987 
    111 H111       28.5285   32.3211    3.8168 H         1 UNK         0.0949 
    112 H112       29.3528   32.2705    1.4462 H         1 UNK         0.0806 
    113 H113       29.5385   30.5241    1.5410 H         1 UNK         0.0806 
    114 H114       27.9391   31.2507    1.6635 H         1 UNK         0.0806 
    115 H115       30.0456   33.1878    5.1357 H         1 UNK         0.3010 
    116 H116       32.3942   32.0836    5.9866 H         1 UNK         0.0829 
    117 H117       31.2178   33.9217    7.1496 H         1 UNK         0.0813 
    118 H118       32.8980   34.3623    6.9031 H         1 UNK         0.0813 
    119 H119       31.6552   35.0573    5.8716 H         1 UNK         0.0813 
    120 H120       32.0555   33.9057    3.0163 H         1 UNK         0.3038 
    121 H121       34.8182   34.4884    2.5393 H         1 UNK         0.0769 
    122 H122       34.0376   34.8294    0.1884 H         1 UNK         0.0811 
    123 H123       32.9705   35.6301    1.3285 H         1 UNK         0.0811 
    124 H124       32.4846   34.1063    0.5822 H         1 UNK         0.0811 
    125 H125       33.0144   31.4942    2.3330 H         1 UNK         0.3204 
    126 H126       35.2790   30.1464    0.8965 H         1 UNK         0.0748 
    127 H127       33.5310   28.5303    0.1078 H         1 UNK         0.0771 
    128 H128       32.2797   29.5474    0.8256 H         1 UNK         0.0771 
    129 H129       33.2602   30.1538   -0.5039 H         1 UNK         0.0771 
    130 H130       32.7148   29.7767    3.4206 H         1 UNK         0.2980 
    131 H131       33.9613   27.3828    4.5120 H         1 UNK         0.0545 
    132 H132       34.7555   30.7504    5.0275 H         1 UNK         0.3459 
    133 H133       35.5788   30.4614    6.5333 H         1 UNK         0.3459 
    134 H134       31.5462   29.0387    5.3628 H         1 UNK         0.0616 
    135 H135       32.1201   27.7013    6.3152 H         1 UNK         0.0616 
    136 H136       30.8363   25.5729    6.2047 H         1 UNK         0.0634 
    137 H137       32.3720   25.2334    5.4444 H         1 UNK         0.0634 
@<TRIPOS>BOND
     1    1    2 1    
     2    1   72 1    
     3    1   73 1    
     4    1   74 1    
     5    2    3 2    
     6    2    4 am   BACKBONE|DICT|INTERRES
     7    4    5 1    
     8    4   75 1    
     9    5    6 1    
    10    5   35 1    
    11    5   76 1    
    12    6    7 1    
    13    6   77 1    
    14    6   78 1    
    15    7    8 1    
    16    8    9 1    
    17    8   79 1    
    18    8   80 1    
    19    9   10 ar   
    20    9   14 ar   
    21   10   11 ar   
    22   10   81 1    
    23   11   12 ar   
    24   11   71 1    
    25   12   13 ar   
    26   12   82 1    
    27   13   14 ar   
    28   13   15 1    
    29   14   83 1    
    30   15   16 1    
    31   15   84 1    
    32   15   85 1    
    33   16   17 1    
    34   17   18 1    
    35   17   86 1    
    36   17   87 1    
    37   18   19 1    
    38   18   37 1    
    39   18   88 1    
    40   19   20 am   BACKBONE|DICT|INTERRES
    41   19   89 1    
    42   20   21 2    
    43   20   22 1    
    44   22   23 1    
    45   22   24 1    
    46   22   90 1    
    47   23   91 1    
    48   23   92 1    
    49   23   93 1    
    50   24   25 am   BACKBONE|DICT|INTERRES
    51   24   94 1    
    52   25   26 2    
    53   25   27 1    
    54   27   28 1    
    55   27   29 1    
    56   27   95 1    
    57   28   96 1    
    58   28   97 1    
    59   28   98 1    
    60   29   30 am   BACKBONE|DICT|INTERRES
    61   29   99 1    
    62   30   31 2    
    63   30   32 1    
    64   32   33 1    
    65   32   34 1    
    66   32  100 1    
    67   33  101 1    
    68   33  102 1    
    69   33  103 1    
    70   34   35 am   BACKBONE|DICT|INTERRES
    71   34  104 1    
    72   35   36 2    
    73   37   38 2    
    74   37   39 am   BACKBONE|DICT|INTERRES
    75   39   40 1    
    76   39  105 1    
    77   40   41 1    
    78   40   42 1    
    79   40  106 1    
    80   41  107 1    
    81   41  108 1    
    82   41  109 1    
    83   42   43 2    
    84   42   44 am   BACKBONE|DICT|INTERRES
    85   44   45 1    
    86   44  110 1    
    87   45   46 1    
    88   45   47 1    
    89   45  111 1    
    90   46  112 1    
    91   46  113 1    
    92   46  114 1    
    93   47   48 2    
    94   47   49 am   BACKBONE|DICT|INTERRES
    95   49   50 1    
    96   49  115 1    
    97   50   51 1    
    98   50   52 1    
    99   50  116 1    
   100   51  117 1    
   101   51  118 1    
   102   51  119 1    
   103   52   53 2    
   104   52   54 am   BACKBONE|DICT|INTERRES
   105   54   55 1    
   106   54  120 1    
   107   55   56 1    
   108   55   57 1    
   109   55  121 1    
   110   56  122 1    
   111   56  123 1    
   112   56  124 1    
   113   57   58 2    
   114   57   59 am   BACKBONE|DICT|INTERRES
   115   59   60 1    
   116   59  125 1    
   117   60   61 1    
   118   60   62 1    
   119   60  126 1    
   120   61  127 1    
   121   61  128 1    
   122   61  129 1    
   123   62   63 2    
   124   62   64 am   BACKBONE|DICT|INTERRES
   125   64   65 1    
   126   64  130 1    
   127   65   66 1    
   128   65   69 1    
   129   65  131 1    
   130   66   67 am   BACKBONE|DICT|INTERRES
   131   66   68 2    
   132   67  132 1    
   133   67  133 1    
   134   69   70 1    
   135   69  134 1    
   136   69  135 1    
   137   70   71 1    
   138   71  136 1    
   139   71  137 1    
@<TRIPOS>SUBSTRUCTURE
     1 UNK         1 GROUP             0       ****    0 ROOT    
