@<TRIPOS>MOLECULE
3R136
137   139    1
SMALL
USER_CHARGES


@<TRIPOS>ATOM
      1 CA         28.9843   23.4121   -4.7817 C.3       0 UNK        -0.1979 
      2 C          29.1599   23.7341   -3.3054 C.2       0 UNK         0.4864 
      3 O          28.6024   24.7226   -2.8227 O.2       0 UNK        -0.5359 
      4 N          29.9257   22.9080   -2.5782 N.am      1 UNK        -0.4318 
      5 CA         30.1791   23.0476   -1.1410 C.3       1 UNK         0.0824 
      6 C6         31.5115   22.3690   -0.7237 C.3       12 UNK        -0.0944 
      7 S7         32.2349   23.1753    0.7421 S.3       12 UNK        -0.2672 
      8 C8         31.9320   21.9330    2.0341 C.3       12 UNK         0.0333 
      9 C9         32.0678   22.5630    3.4089 C.ar      12 UNK        -0.0807 
     10 C10        33.3142   22.6181    4.0396 C.ar      12 UNK        -0.0894 
     11 C11        33.4483   23.2393    5.2850 C.ar      12 UNK        -0.0804 
     12 C12        32.3216   23.7817    5.9089 C.ar      12 UNK        -0.0824 
     13 C13        31.0760   23.7489    5.2775 C.ar      12 UNK        -0.0762 
     14 C14        30.9504   23.1278    4.0320 C.ar      12 UNK        -0.0782 
     15 C15        29.8847   24.4268    5.9319 C.3       12 UNK         0.0230 
     16 S16        29.9004   26.2158    5.5979 S.3       12 UNK        -0.2608 
     17 C17        28.9571   26.2984    4.0355 C.3       12 UNK        -0.0989 
     18 CA         29.0741   27.6660    3.3187 C.3       5 UNK         0.0716 
     19 N          28.4165   27.6457    2.0093 N.am      5 UNK        -0.4135 
     20 C          28.4264   28.6583    1.1260 C.2       4 UNK         0.5031 
     21 O          29.0424   29.7112    1.3017 O.2       4 UNK        -0.5229 
     22 CA         27.6169   28.4930   -0.1754 C.3       4 UNK         0.0329 
     23 CB         28.5501   28.1083   -1.3345 C.3       4 UNK        -0.2001 
     24 N          26.5373   27.5078   -0.0846 N.am      4 UNK        -0.4303 
     25 C          25.4475   27.6189    0.6890 C.2       3 UNK         0.5044 
     26 O          25.1682   28.6295    1.3321 O.2       3 UNK        -0.5152 
     27 CA         24.5171   26.3925    0.7850 C.3       3 UNK         0.0319 
     28 CB         23.2455   26.6195   -0.0491 C.3       3 UNK        -0.2001 
     29 N          25.1206   25.1104    0.3942 N.am      3 UNK        -0.4354 
     30 C          26.2085   24.5473    0.9404 C.2       2 UNK         0.4964 
     31 O          26.8873   25.0824    1.8180 O.2       2 UNK        -0.5047 
     32 CA         26.6526   23.1885    0.3863 C.3       2 UNK         0.0288 
     33 CB         25.6319   22.5043   -0.5490 C.3       2 UNK        -0.2113 
     34 N          27.9075   23.3969   -0.3253 N.am      2 UNK        -0.4145 
     35 C          28.9537   22.5674   -0.3313 C.2       1 UNK         0.5006 
     36 O          28.9573   21.4670    0.2243 O.2       1 UNK        -0.5103 
     37 C          28.5232   28.8231    4.1783 C.2       5 UNK         0.5055 
     38 O          27.3167   28.8828    4.4236 O.2       5 UNK        -0.5220 
     39 N          29.4207   29.7365    4.5682 N.am      6 UNK        -0.4450 
     40 CA         29.2181   30.9798    5.3232 C.3       6 UNK         0.0367 
     41 CB         28.5255   30.7278    6.6764 C.3       6 UNK        -0.1929 
     42 C          28.5166   32.0958    4.5271 C.2       6 UNK         0.5070 
     43 O          28.8064   33.2665    4.7730 O.2       6 UNK        -0.5237 
     44 N          27.6337   31.7374    3.5856 N.am      7 UNK        -0.4739 
     45 CA         26.9458   32.6612    2.6817 C.3       7 UNK         0.0276 
     46 CB         25.8150   31.9222    1.9505 C.3       7 UNK        -0.1927 
     47 C          27.9046   33.3192    1.6770 C.2       7 UNK         0.5013 
     48 O          27.8485   34.5370    1.5005 O.2       7 UNK        -0.5193 
     49 N          28.7707   32.5083    1.0546 N.am      8 UNK        -0.4253 
     50 CA         29.8491   32.9679    0.1815 C.3       8 UNK         0.0242 
     51 CB         30.0418   31.9803   -0.9825 C.3       8 UNK        -0.2000 
     52 C          31.1418   33.1284    0.9909 C.2       8 UNK         0.4948 
     53 O          31.7601   34.1922    0.9363 O.2       8 UNK        -0.5275 
     54 N          31.5136   32.0828    1.7403 N.am      9 UNK        -0.4246 
     55 CA         32.6890   32.0288    2.6058 C.3       9 UNK         0.0261 
     56 CB         33.9750   31.9197    1.7625 C.3       9 UNK        -0.1959 
     57 C          32.5603   30.8123    3.5244 C.2       9 UNK         0.5033 
     58 O          31.8520   29.8598    3.1817 O.2       9 UNK        -0.5390 
     59 N          33.2651   30.8326    4.6620 N.am      10 UNK        -0.4215 
     60 CA         33.4124   29.6736    5.5464 C.3       10 UNK         0.0240 
     61 CB         34.1136   30.0981    6.8472 C.3       10 UNK        -0.1982 
     62 C          34.1978   28.5684    4.8208 C.2       10 UNK         0.4970 
     63 O          35.3322   28.8148    4.4052 O.2       10 UNK        -0.4916 
     64 N          33.5536   27.4107    4.6349 N.am      11 UNK        -0.4279 
     65 CA         34.0162   26.3029    3.7808 C.3       11 UNK         0.1003 
     66 C          34.0351   26.6394    2.2565 C.2       11 UNK         0.5709 
     67 N          33.3191   27.6582    1.7903 N.am      11 UNK        -0.7358 
     68 O          34.6937   25.9591    1.4737 O.2       11 UNK        -0.4999 
     69 C69        35.3401   25.6339    4.2699 C.3       12 UNK        -0.0954 
     70 S70        35.3187   25.1410    6.0298 S.3       12 UNK        -0.2268 
     71 C71        34.8183   23.3900    5.9285 C.3       12 UNK         0.0203 
     72 H72        29.3400   24.2428   -5.3906 H         1 UNK         0.0888 
     73 H73        29.5349   22.5177   -5.0726 H         1 UNK         0.0888 
     74 H74        27.9305   23.2508   -5.0067 H         1 UNK         0.0888 
     75 H75        30.3338   22.0953   -3.0184 H         1 UNK         0.3017 
     76 H76        30.2897   24.1172   -0.9442 H         1 UNK         0.0873 
     77 H77        31.4053   21.2933   -0.5705 H         1 UNK         0.0745 
     78 H78        32.2479   22.4780   -1.5216 H         1 UNK         0.0745 
     79 H79        30.9353   21.5064    1.9228 H         1 UNK         0.0705 
     80 H80        32.6366   21.1080    1.9184 H         1 UNK         0.0705 
     81 H81        34.1836   22.2085    3.5434 H         1 UNK         0.1334 
     82 H82        32.4268   24.2800    6.8633 H         1 UNK         0.1417 
     83 H83        29.9902   23.1060    3.5342 H         1 UNK         0.1562 
     84 H84        29.9218   24.2692    7.0109 H         1 UNK         0.0748 
     85 H85        28.9459   23.9867    5.5916 H         1 UNK         0.0748 
     86 H86        27.9115   26.0621    4.2441 H         1 UNK         0.0940 
     87 H87        29.3195   25.5113    3.3727 H         1 UNK         0.0940 
     88 H88        30.1338   27.8443    3.1262 H         1 UNK         0.0703 
     89 H89        27.8495   26.8272    1.8125 H         1 UNK         0.3081 
     90 H90        27.1682   29.4620   -0.4038 H         1 UNK         0.0719 
     91 H91        29.0202   27.1375   -1.1711 H         1 UNK         0.0809 
     92 H92        29.3498   28.8405   -1.4530 H         1 UNK         0.0809 
     93 H93        28.0119   28.0641   -2.2815 H         1 UNK         0.0809 
     94 H94        26.6627   26.6498   -0.6000 H         1 UNK         0.2990 
     95 H95        24.2251   26.3025    1.8333 H         1 UNK         0.0690 
     96 H96        22.5246   25.8148    0.0967 H         1 UNK         0.0788 
     97 H97        23.4686   26.6841   -1.1149 H         1 UNK         0.0788 
     98 H98        22.7504   27.5489    0.2368 H         1 UNK         0.0788 
     99 H99        24.6433   24.5978   -0.3337 H         1 UNK         0.2993 
    100 H100       26.8199   22.5429    1.2515 H         1 UNK         0.0949 
    101 H101       25.9802   21.5129   -0.8400 H         1 UNK         0.0767 
    102 H102       24.6688   22.3682   -0.0548 H         1 UNK         0.0767 
    103 H103       25.4672   23.0719   -1.4659 H         1 UNK         0.0767 
    104 H104       27.9808   24.2426   -0.8808 H         1 UNK         0.3013 
    105 H105       30.3567   29.6373    4.1761 H         1 UNK         0.3121 
    106 H106       30.2219   31.3479    5.5409 H         1 UNK         0.0774 
    107 H107       28.5126   31.6370    7.2787 H         1 UNK         0.0815 
    108 H108       27.4900   30.4096    6.5541 H         1 UNK         0.0815 
    109 H109       29.0469   29.9635    7.2527 H         1 UNK         0.0815 
    110 H110       27.4272   30.7496    3.4885 H         1 UNK         0.2987 
    111 H111       26.5004   33.4540    3.2869 H         1 UNK         0.0949 
    112 H112       26.1993   31.1199    1.3203 H         1 UNK         0.0806 
    113 H113       25.1056   31.4830    2.6523 H         1 UNK         0.0806 
    114 H114       25.2562   32.6027    1.3067 H         1 UNK         0.0806 
    115 H115       28.7560   31.5118    1.2662 H         1 UNK         0.3010 
    116 H116       29.5922   33.9396   -0.2463 H         1 UNK         0.0829 
    117 H117       29.1206   31.8543   -1.5514 H         1 UNK         0.0813 
    118 H118       30.8041   32.3416   -1.6738 H         1 UNK         0.0813 
    119 H119       30.3585   30.9956   -0.6383 H         1 UNK         0.0813 
    120 H120       30.9533   31.2364    1.7466 H         1 UNK         0.3038 
    121 H121       32.7187   32.9316    3.2193 H         1 UNK         0.0769 
    122 H122       34.1173   32.7948    1.1287 H         1 UNK         0.0811 
    123 H123       33.9564   31.0398    1.1178 H         1 UNK         0.0811 
    124 H124       34.8583   31.8385    2.3973 H         1 UNK         0.0811 
    125 H125       33.8525   31.6300    4.8602 H         1 UNK         0.3204 
    126 H126       32.4159   29.3053    5.8010 H         1 UNK         0.0748 
    127 H127       33.5410   30.8602    7.3762 H         1 UNK         0.0771 
    128 H128       34.2245   29.2488    7.5228 H         1 UNK         0.0771 
    129 H129       35.1114   30.4968    6.6591 H         1 UNK         0.0771 
    130 H130       32.6214   27.3034    5.0071 H         1 UNK         0.2980 
    131 H131       33.2293   25.5552    3.8578 H         1 UNK         0.0545 
    132 H132       33.3389   27.8496    0.8023 H         1 UNK         0.3459 
    133 H133       32.7803   28.2563    2.4057 H         1 UNK         0.3459 
    134 H134       35.5630   24.7496    3.6706 H         1 UNK         0.0616 
    135 H135       36.1834   26.3098    4.1226 H         1 UNK         0.0616 
    136 H136       34.7924   22.9688    6.9343 H         1 UNK         0.0634 
    137 H137       35.5761   22.8315    5.3768 H         1 UNK         0.0634 
@<TRIPOS>BOND
     1    1    2 1    
     2    1   72 1    
     3    1   73 1    
     4    1   74 1    
     5    2    3 2    
     6    2    4 am   BACKBONE|DICT|INTERRES
     7    4    5 1    
     8    4   75 1    
     9    5    6 1    
    10    5   35 1    
    11    5   76 1    
    12    6    7 1    
    13    6   77 1    
    14    6   78 1    
    15    7    8 1    
    16    8    9 1    
    17    8   79 1    
    18    8   80 1    
    19    9   10 ar   
    20    9   14 ar   
    21   10   11 ar   
    22   10   81 1    
    23   11   12 ar   
    24   11   71 1    
    25   12   13 ar   
    26   12   82 1    
    27   13   14 ar   
    28   13   15 1    
    29   14   83 1    
    30   15   16 1    
    31   15   84 1    
    32   15   85 1    
    33   16   17 1    
    34   17   18 1    
    35   17   86 1    
    36   17   87 1    
    37   18   19 1    
    38   18   37 1    
    39   18   88 1    
    40   19   20 am   BACKBONE|DICT|INTERRES
    41   19   89 1    
    42   20   21 2    
    43   20   22 1    
    44   22   23 1    
    45   22   24 1    
    46   22   90 1    
    47   23   91 1    
    48   23   92 1    
    49   23   93 1    
    50   24   25 am   BACKBONE|DICT|INTERRES
    51   24   94 1    
    52   25   26 2    
    53   25   27 1    
    54   27   28 1    
    55   27   29 1    
    56   27   95 1    
    57   28   96 1    
    58   28   97 1    
    59   28   98 1    
    60   29   30 am   BACKBONE|DICT|INTERRES
    61   29   99 1    
    62   30   31 2    
    63   30   32 1    
    64   32   33 1    
    65   32   34 1    
    66   32  100 1    
    67   33  101 1    
    68   33  102 1    
    69   33  103 1    
    70   34   35 am   BACKBONE|DICT|INTERRES
    71   34  104 1    
    72   35   36 2    
    73   37   38 2    
    74   37   39 am   BACKBONE|DICT|INTERRES
    75   39   40 1    
    76   39  105 1    
    77   40   41 1    
    78   40   42 1    
    79   40  106 1    
    80   41  107 1    
    81   41  108 1    
    82   41  109 1    
    83   42   43 2    
    84   42   44 am   BACKBONE|DICT|INTERRES
    85   44   45 1    
    86   44  110 1    
    87   45   46 1    
    88   45   47 1    
    89   45  111 1    
    90   46  112 1    
    91   46  113 1    
    92   46  114 1    
    93   47   48 2    
    94   47   49 am   BACKBONE|DICT|INTERRES
    95   49   50 1    
    96   49  115 1    
    97   50   51 1    
    98   50   52 1    
    99   50  116 1    
   100   51  117 1    
   101   51  118 1    
   102   51  119 1    
   103   52   53 2    
   104   52   54 am   BACKBONE|DICT|INTERRES
   105   54   55 1    
   106   54  120 1    
   107   55   56 1    
   108   55   57 1    
   109   55  121 1    
   110   56  122 1    
   111   56  123 1    
   112   56  124 1    
   113   57   58 2    
   114   57   59 am   BACKBONE|DICT|INTERRES
   115   59   60 1    
   116   59  125 1    
   117   60   61 1    
   118   60   62 1    
   119   60  126 1    
   120   61  127 1    
   121   61  128 1    
   122   61  129 1    
   123   62   63 2    
   124   62   64 am   BACKBONE|DICT|INTERRES
   125   64   65 1    
   126   64  130 1    
   127   65   66 1    
   128   65   69 1    
   129   65  131 1    
   130   66   67 am   BACKBONE|DICT|INTERRES
   131   66   68 2    
   132   67  132 1    
   133   67  133 1    
   134   69   70 1    
   135   69  134 1    
   136   69  135 1    
   137   70   71 1    
   138   71  136 1    
   139   71  137 1    
@<TRIPOS>SUBSTRUCTURE
     1 UNK         1 GROUP             0       ****    0 ROOT    
