@<TRIPOS>MOLECULE
3R136
137   139    1
SMALL
USER_CHARGES


@<TRIPOS>ATOM
      1 CA         28.7456   21.1109   -1.8155 C.3       0 UNK        -0.1979 
      2 C          28.5118   21.3744   -0.3348 C.2       0 UNK         0.4864 
      3 O          27.9375   20.5262    0.3493 O.2       0 UNK        -0.5359 
      4 N          28.9630   22.5406    0.1481 N.am      1 UNK        -0.4318 
      5 CA         28.8008   23.0724    1.5070 C.3       1 UNK         0.0824 
      6 C6         29.2786   22.0925    2.6158 C.3       12 UNK        -0.0944 
      7 S7         29.8914   22.9219    4.1236 S.3       12 UNK        -0.2672 
      8 C8         31.6830   23.0395    3.8070 C.3       12 UNK         0.0333 
      9 C9         32.0166   24.2792    2.9911 C.ar      12 UNK        -0.0807 
     10 C10        32.2755   25.4920    3.6355 C.ar      12 UNK        -0.0894 
     11 C11        32.5600   26.6445    2.8964 C.ar      12 UNK        -0.0804 
     12 C12        32.5444   26.5853    1.4989 C.ar      12 UNK        -0.0824 
     13 C13        32.2802   25.3779    0.8434 C.ar      12 UNK        -0.0762 
     14 C14        32.0520   24.2220    1.5957 C.ar      12 UNK        -0.0782 
     15 C15        32.2268   25.3153   -0.6762 C.3       12 UNK         0.0230 
     16 S16        30.5215   25.0758   -1.2757 S.3       12 UNK        -0.2608 
     17 C17        29.7422   26.6609   -0.8223 C.3       12 UNK        -0.0989 
     18 CA         28.5977   27.0263   -1.7993 C.3       5 UNK         0.0716 
     19 N          27.4411   26.1351   -1.6723 N.am      5 UNK        -0.4135 
     20 C          26.6855   25.7261   -2.7012 C.2       4 UNK         0.5031 
     21 O          26.9443   25.9580   -3.8829 O.2       4 UNK        -0.5229 
     22 CA         25.4075   24.9386   -2.3596 C.3       4 UNK         0.0329 
     23 CB         25.6919   23.4293   -2.3280 C.3       4 UNK        -0.2001 
     24 N          24.8052   25.3644   -1.0918 N.am      4 UNK        -0.4303 
     25 C          24.1909   26.5466   -0.9227 C.2       3 UNK         0.5044 
     26 O          23.9967   27.3447   -1.8398 O.2       3 UNK        -0.5152 
     27 CA         23.7180   26.9283    0.4942 C.3       3 UNK         0.0319 
     28 CB         22.1922   26.7785    0.6076 C.3       3 UNK        -0.2001 
     29 N          24.3506   26.1845    1.5881 N.am      3 UNK        -0.4354 
     30 C          25.6571   26.1816    1.8827 C.2       2 UNK         0.4964 
     31 O          26.5057   26.7868    1.2218 O.2       2 UNK        -0.5047 
     32 CA         26.1108   25.3344    3.0897 C.3       2 UNK         0.0288 
     33 CB         25.0013   24.4506    3.7060 C.3       2 UNK        -0.2113 
     34 N          27.2849   24.5227    2.7532 N.am      2 UNK        -0.4145 
     35 C          27.3884   23.6445    1.7448 C.2       1 UNK         0.5006 
     36 O          26.4479   23.3432    1.0044 O.2       1 UNK        -0.5103 
     37 C          28.1529   28.4873   -1.6080 C.2       5 UNK         0.5055 
     38 O          28.5725   29.3476   -2.3826 O.2       5 UNK        -0.5220 
     39 N          27.3231   28.7384   -0.5807 N.am      6 UNK        -0.4450 
     40 CA         26.7795   30.0387   -0.1615 C.3       6 UNK         0.0367 
     41 CB         25.8412   30.6185   -1.2406 C.3       6 UNK        -0.1929 
     42 C          27.8512   31.0511    0.2974 C.2       6 UNK         0.5070 
     43 O          27.5856   32.2540    0.3240 O.2       6 UNK        -0.5237 
     44 N          29.0396   30.5543    0.6615 N.am      7 UNK        -0.4739 
     45 CA         30.1646   31.3441    1.1488 C.3       7 UNK         0.0276 
     46 CB         31.4767   30.6422    0.7582 C.3       7 UNK        -0.1927 
     47 C          30.0481   31.5081    2.6686 C.2       7 UNK         0.5013 
     48 O          30.2123   30.5288    3.3994 O.2       7 UNK        -0.5193 
     49 N          29.7691   32.7358    3.1204 N.am      8 UNK        -0.4253 
     50 CA         29.7163   33.1106    4.5340 C.3       8 UNK         0.0242 
     51 CB         28.7819   34.3246    4.6957 C.3       8 UNK        -0.2000 
     52 C          31.1379   33.3824    5.0570 C.2       8 UNK         0.4948 
     53 O          31.5082   34.5400    5.2644 O.2       8 UNK        -0.5275 
     54 N          31.9221   32.3120    5.2155 N.am      9 UNK        -0.4246 
     55 CA         33.3116   32.3396    5.6595 C.3       9 UNK         0.0261 
     56 CB         34.2367   32.3343    4.4295 C.3       9 UNK        -0.1959 
     57 C          33.5836   31.1228    6.5480 C.2       9 UNK         0.5033 
     58 O          32.9179   30.0932    6.4054 O.2       9 UNK        -0.5390 
     59 N          34.5824   31.2491    7.4288 N.am      10 UNK        -0.4215 
     60 CA         35.0661   30.1824    8.3053 C.3       10 UNK         0.0240 
     61 CB         35.7079   30.8129    9.5561 C.3       10 UNK        -0.1982 
     62 C          36.0362   29.2651    7.5403 C.2       10 UNK         0.4970 
     63 O          37.2471   29.3252    7.7625 O.2       10 UNK        -0.4916 
     64 N          35.4846   28.4611    6.6241 N.am      11 UNK        -0.4279 
     65 CA         36.2300   27.5280    5.7618 C.3       11 UNK         0.1003 
     66 C          36.9040   26.3368    6.5055 C.2       11 UNK         0.5709 
     67 N          36.5229   26.0179    7.7371 N.am      11 UNK        -0.7358 
     68 O          37.7933   25.6932    5.9531 O.2       11 UNK        -0.4999 
     69 C69        35.3605   27.0054    4.5896 C.3       12 UNK        -0.0954 
     70 S70        34.6597   28.3358    3.5533 S.3       12 UNK        -0.2268 
     71 C71        32.8797   27.9524    3.6096 C.3       12 UNK         0.0203 
     72 H72        27.7984   20.9059   -2.3137 H         1 UNK         0.0888 
     73 H73        29.2116   21.9616   -2.3131 H         1 UNK         0.0888 
     74 H74        29.3937   20.2446   -1.9448 H         1 UNK         0.0888 
     75 H75        29.4086   23.1851   -0.4936 H         1 UNK         0.3017 
     76 H76        29.4513   23.9449    1.5206 H         1 UNK         0.0873 
     77 H77        30.0789   21.4561    2.2357 H         1 UNK         0.0745 
     78 H78        28.4766   21.4074    2.8974 H         1 UNK         0.0745 
     79 H79        32.0441   22.1383    3.3092 H         1 UNK         0.0705 
     80 H80        32.2034   23.0812    4.7651 H         1 UNK         0.0705 
     81 H81        32.2572   25.5368    4.7160 H         1 UNK         0.1334 
     82 H82        32.7458   27.4789    0.9246 H         1 UNK         0.1417 
     83 H83        31.8548   23.2858    1.0909 H         1 UNK         0.1562 
     84 H84        32.8433   24.4850   -1.0237 H         1 UNK         0.0748 
     85 H85        32.6494   26.2167   -1.1230 H         1 UNK         0.0748 
     86 H86        30.5124   27.4352   -0.8342 H         1 UNK         0.0940 
     87 H87        29.3832   26.5994    0.2072 H         1 UNK         0.0940 
     88 H88        29.0002   26.9540   -2.8125 H         1 UNK         0.0703 
     89 H89        27.1308   25.9243   -0.7332 H         1 UNK         0.3081 
     90 H90        24.6831   25.1244   -3.1558 H         1 UNK         0.0719 
     91 H91        26.0635   23.0839   -3.2937 H         1 UNK         0.0809 
     92 H92        26.4454   23.1772   -1.5837 H         1 UNK         0.0809 
     93 H93        24.7917   22.8573   -2.1030 H         1 UNK         0.0809 
     94 H94        24.9339   24.7566   -0.2927 H         1 UNK         0.2990 
     95 H95        23.9670   27.9824    0.6345 H         1 UNK         0.0690 
     96 H96        21.8261   27.1470    1.5661 H         1 UNK         0.0788 
     97 H97        21.8804   25.7384    0.5044 H         1 UNK         0.0788 
     98 H98        21.6835   27.3497   -0.1706 H         1 UNK         0.0788 
     99 H99        23.7359   25.6329    2.1695 H         1 UNK         0.2993 
    100 H100       26.4332   26.0461    3.8512 H         1 UNK         0.0949 
    101 H101       24.1760   25.0533    4.0873 H         1 UNK         0.0767 
    102 H102       24.5943   23.7380    2.9872 H         1 UNK         0.0767 
    103 H103       25.3864   23.8774    4.5497 H         1 UNK         0.0767 
    104 H104       28.1144   24.7078    3.3014 H         1 UNK         0.3013 
    105 H105       27.0586   27.9635    0.0277 H         1 UNK         0.3121 
    106 H106       26.1722   29.8329    0.7212 H         1 UNK         0.0774 
    107 H107       25.0828   29.8943   -1.5375 H         1 UNK         0.0815 
    108 H108       25.3167   31.5007   -0.8717 H         1 UNK         0.0815 
    109 H109       26.3883   30.9176   -2.1350 H         1 UNK         0.0815 
    110 H110       29.1546   29.5522    0.6696 H         1 UNK         0.2987 
    111 H111       30.1583   32.3294    0.6766 H         1 UNK         0.0949 
    112 H112       31.6004   30.6133   -0.3246 H         1 UNK         0.0806 
    113 H113       32.3404   31.1657    1.1708 H         1 UNK         0.0806 
    114 H114       31.5104   29.6160    1.1227 H         1 UNK         0.0806 
    115 H115       29.6499   33.4847    2.4529 H         1 UNK         0.3010 
    116 H116       29.2960   32.2870    5.1161 H         1 UNK         0.0829 
    117 H117       28.7204   34.6320    5.7405 H         1 UNK         0.0813 
    118 H118       29.1286   35.1854    4.1224 H         1 UNK         0.0813 
    119 H119       27.7689   34.0905    4.3678 H         1 UNK         0.0813 
    120 H120       31.5437   31.3864    5.0395 H         1 UNK         0.3038 
    121 H121       33.4952   33.2403    6.2497 H         1 UNK         0.0769 
    122 H122       35.2869   32.3400    4.7237 H         1 UNK         0.0811 
    123 H123       34.0704   33.2127    3.8057 H         1 UNK         0.0811 
    124 H124       34.0755   31.4503    3.8107 H         1 UNK         0.0811 
    125 H125       35.1021   32.1153    7.4513 H         1 UNK         0.3204 
    126 H126       34.2218   29.5737    8.6373 H         1 UNK         0.0748 
    127 H127       36.0804   30.0428   10.2331 H         1 UNK         0.0771 
    128 H128       36.5496   31.4586    9.3017 H         1 UNK         0.0771 
    129 H129       34.9852   31.4094   10.1133 H         1 UNK         0.0771 
    130 H130       34.4880   28.5316    6.4599 H         1 UNK         0.2980 
    131 H131       37.0495   28.1005    5.3229 H         1 UNK         0.0545 
    132 H132       35.7934   26.5369    8.1979 H         1 UNK         0.3459 
    133 H133       36.9704   25.2474    8.2080 H         1 UNK         0.3459 
    134 H134       35.9485   26.3629    3.9316 H         1 UNK         0.0616 
    135 H135       34.5578   26.3809    4.9821 H         1 UNK         0.0616 
    136 H136       32.5494   27.9213    4.6490 H         1 UNK         0.0634 
    137 H137       32.3293   28.7691    3.1439 H         1 UNK         0.0634 
@<TRIPOS>BOND
     1    1    2 1    
     2    1   72 1    
     3    1   73 1    
     4    1   74 1    
     5    2    3 2    
     6    2    4 am   BACKBONE|DICT|INTERRES
     7    4    5 1    
     8    4   75 1    
     9    5    6 1    
    10    5   35 1    
    11    5   76 1    
    12    6    7 1    
    13    6   77 1    
    14    6   78 1    
    15    7    8 1    
    16    8    9 1    
    17    8   79 1    
    18    8   80 1    
    19    9   10 ar   
    20    9   14 ar   
    21   10   11 ar   
    22   10   81 1    
    23   11   12 ar   
    24   11   71 1    
    25   12   13 ar   
    26   12   82 1    
    27   13   14 ar   
    28   13   15 1    
    29   14   83 1    
    30   15   16 1    
    31   15   84 1    
    32   15   85 1    
    33   16   17 1    
    34   17   18 1    
    35   17   86 1    
    36   17   87 1    
    37   18   19 1    
    38   18   37 1    
    39   18   88 1    
    40   19   20 am   BACKBONE|DICT|INTERRES
    41   19   89 1    
    42   20   21 2    
    43   20   22 1    
    44   22   23 1    
    45   22   24 1    
    46   22   90 1    
    47   23   91 1    
    48   23   92 1    
    49   23   93 1    
    50   24   25 am   BACKBONE|DICT|INTERRES
    51   24   94 1    
    52   25   26 2    
    53   25   27 1    
    54   27   28 1    
    55   27   29 1    
    56   27   95 1    
    57   28   96 1    
    58   28   97 1    
    59   28   98 1    
    60   29   30 am   BACKBONE|DICT|INTERRES
    61   29   99 1    
    62   30   31 2    
    63   30   32 1    
    64   32   33 1    
    65   32   34 1    
    66   32  100 1    
    67   33  101 1    
    68   33  102 1    
    69   33  103 1    
    70   34   35 am   BACKBONE|DICT|INTERRES
    71   34  104 1    
    72   35   36 2    
    73   37   38 2    
    74   37   39 am   BACKBONE|DICT|INTERRES
    75   39   40 1    
    76   39  105 1    
    77   40   41 1    
    78   40   42 1    
    79   40  106 1    
    80   41  107 1    
    81   41  108 1    
    82   41  109 1    
    83   42   43 2    
    84   42   44 am   BACKBONE|DICT|INTERRES
    85   44   45 1    
    86   44  110 1    
    87   45   46 1    
    88   45   47 1    
    89   45  111 1    
    90   46  112 1    
    91   46  113 1    
    92   46  114 1    
    93   47   48 2    
    94   47   49 am   BACKBONE|DICT|INTERRES
    95   49   50 1    
    96   49  115 1    
    97   50   51 1    
    98   50   52 1    
    99   50  116 1    
   100   51  117 1    
   101   51  118 1    
   102   51  119 1    
   103   52   53 2    
   104   52   54 am   BACKBONE|DICT|INTERRES
   105   54   55 1    
   106   54  120 1    
   107   55   56 1    
   108   55   57 1    
   109   55  121 1    
   110   56  122 1    
   111   56  123 1    
   112   56  124 1    
   113   57   58 2    
   114   57   59 am   BACKBONE|DICT|INTERRES
   115   59   60 1    
   116   59  125 1    
   117   60   61 1    
   118   60   62 1    
   119   60  126 1    
   120   61  127 1    
   121   61  128 1    
   122   61  129 1    
   123   62   63 2    
   124   62   64 am   BACKBONE|DICT|INTERRES
   125   64   65 1    
   126   64  130 1    
   127   65   66 1    
   128   65   69 1    
   129   65  131 1    
   130   66   67 am   BACKBONE|DICT|INTERRES
   131   66   68 2    
   132   67  132 1    
   133   67  133 1    
   134   69   70 1    
   135   69  134 1    
   136   69  135 1    
   137   70   71 1    
   138   71  136 1    
   139   71  137 1    
@<TRIPOS>SUBSTRUCTURE
     1 UNK         1 GROUP             0       ****    0 ROOT    
