@<TRIPOS>MOLECULE
3R136
137   139    1
SMALL
USER_CHARGES


@<TRIPOS>ATOM
      1 CA         25.7065   22.9879   -4.2087 C.3       0 UNK        -0.1979 
      2 C          26.5657   23.5910   -3.1084 C.2       0 UNK         0.4864 
      3 O          26.1577   24.5681   -2.4770 O.2       0 UNK        -0.5359 
      4 N          27.7465   23.0067   -2.8495 N.am      1 UNK        -0.4318 
      5 CA         28.7182   23.4960   -1.8591 C.3       1 UNK         0.0824 
      6 C6         30.1129   22.8294   -2.0073 C.3       12 UNK        -0.0944 
      7 S7         31.4681   24.0491   -1.8718 S.3       12 UNK        -0.2672 
      8 C8         32.6859   23.1954   -0.8237 C.3       12 UNK         0.0333 
      9 C9         32.6551   23.6678    0.6249 C.ar      12 UNK        -0.0807 
     10 C10        33.4883   24.7139    1.0391 C.ar      12 UNK        -0.0894 
     11 C11        33.5574   25.0797    2.3877 C.ar      12 UNK        -0.0804 
     12 C12        32.7837   24.3868    3.3227 C.ar      12 UNK        -0.0824 
     13 C13        31.9097   23.3723    2.9184 C.ar      12 UNK        -0.0762 
     14 C14        31.8504   23.0175    1.5659 C.ar      12 UNK        -0.0782 
     15 C15        31.0637   22.6273    3.9463 C.3       12 UNK         0.0230 
     16 S16        30.1173   23.7397    5.0416 S.3       12 UNK        -0.2608 
     17 C17        28.9995   24.5584    3.8577 C.3       12 UNK        -0.0989 
     18 CA         29.4479   26.0017    3.5038 C.3       5 UNK         0.0716 
     19 N          29.0495   26.3558    2.1394 N.am      5 UNK        -0.4135 
     20 C          29.2386   27.5302    1.5232 C.2       4 UNK         0.5031 
     21 O          29.8467   28.4771    2.0144 O.2       4 UNK        -0.5229 
     22 CA         28.5435   27.7182    0.1632 C.3       4 UNK         0.0329 
     23 CB         29.4735   27.2913   -0.9813 C.3       4 UNK        -0.2001 
     24 N          27.2630   27.0052    0.0608 N.am      4 UNK        -0.4303 
     25 C          26.2128   27.1797    0.8796 C.2       3 UNK         0.5044 
     26 O          26.2000   27.9774    1.8186 O.2       3 UNK        -0.5152 
     27 CA         25.0014   26.2653    0.6452 C.3       3 UNK         0.0319 
     28 CB         24.1893   26.7282   -0.5746 C.3       3 UNK        -0.2001 
     29 N          25.4205   24.8722    0.4725 N.am      3 UNK        -0.4354 
     30 C          25.7997   24.0777    1.4875 C.2       2 UNK         0.4964 
     31 O          25.7245   24.4031    2.6721 O.2       2 UNK        -0.5047 
     32 CA         26.3967   22.7008    1.1323 C.3       2 UNK         0.0288 
     33 CB         25.2948   21.6302    1.0891 C.3       2 UNK        -0.2113 
     34 N          27.1316   22.6920   -0.1356 N.am      2 UNK        -0.4145 
     35 C          28.2060   23.4503   -0.4025 C.2       1 UNK         0.5006 
     36 O          28.7557   24.1489    0.4450 O.2       1 UNK        -0.5103 
     37 C          28.9820   27.0149    4.5768 C.2       5 UNK         0.5055 
     38 O          29.6693   27.1785    5.5842 O.2       5 UNK        -0.5220 
     39 N          27.8447   27.6857    4.3435 N.am      6 UNK        -0.4450 
     40 CA         27.3538   28.7848    5.1720 C.3       6 UNK         0.0367 
     41 CB         25.8534   28.5804    5.4403 C.3       6 UNK        -0.1929 
     42 C          27.5952   30.1475    4.5027 C.2       6 UNK         0.5070 
     43 O          27.9670   31.0979    5.1914 O.2       6 UNK        -0.5237 
     44 N          27.3279   30.2403    3.1932 N.am      7 UNK        -0.4739 
     45 CA         27.2206   31.5092    2.4721 C.3       7 UNK         0.0276 
     46 CB         26.2557   31.3172    1.2894 C.3       7 UNK        -0.1927 
     47 C          28.5455   32.1080    1.9702 C.2       7 UNK         0.5013 
     48 O          28.6013   33.3282    1.8043 O.2       7 UNK        -0.5193 
     49 N          29.5551   31.2794    1.6728 N.am      8 UNK        -0.4253 
     50 CA         30.7552   31.7000    0.9438 C.3       8 UNK         0.0242 
     51 CB         31.0554   30.6737   -0.1618 C.3       8 UNK        -0.2000 
     52 C          31.9774   31.8410    1.8590 C.2       8 UNK         0.4948 
     53 O          32.0902   31.1361    2.8666 O.2       8 UNK        -0.5275 
     54 N          32.8995   32.7162    1.4245 N.am      9 UNK        -0.4246 
     55 CA         34.2448   32.9550    1.9592 C.3       9 UNK         0.0261 
     56 CB         35.1932   31.8311    1.4779 C.3       9 UNK        -0.1959 
     57 C          34.2389   33.1682    3.4848 C.2       9 UNK         0.5033 
     58 O          33.6459   34.1404    3.9567 O.2       9 UNK        -0.5390 
     59 N          34.8681   32.2442    4.2147 N.am      10 UNK        -0.4215 
     60 CA         34.8094   32.1183    5.6658 C.3       10 UNK         0.0240 
     61 CB         36.0728   32.7394    6.2935 C.3       10 UNK        -0.1982 
     62 C          34.6122   30.6372    6.0276 C.2       10 UNK         0.4970 
     63 O          35.2487   30.1499    6.9636 O.2       10 UNK        -0.4916 
     64 N          33.7577   29.9350    5.2661 N.am      11 UNK        -0.4279 
     65 CA         33.4478   28.5109    5.4796 C.3       11 UNK         0.1003 
     66 C          32.6710   28.2070    6.7951 C.2       11 UNK         0.5709 
     67 N          31.9915   29.1724    7.4049 N.am      11 UNK        -0.7358 
     68 O          32.7169   27.0814    7.2860 O.2       11 UNK        -0.4999 
     69 C69        32.7324   27.8808    4.2573 C.3       12 UNK        -0.0954 
     70 S70        33.7640   27.8446    2.7525 S.3       12 UNK        -0.2268 
     71 C71        34.5084   26.1823    2.8410 C.3       12 UNK         0.0203 
     72 H72        25.5229   23.7283   -4.9867 H         1 UNK         0.0888 
     73 H73        26.1816   22.1219   -4.6692 H         1 UNK         0.0888 
     74 H74        24.7451   22.6735   -3.8036 H         1 UNK         0.0888 
     75 H75        28.0283   22.1985   -3.3868 H         1 UNK         0.3017 
     76 H76        28.8261   24.5564   -2.0934 H         1 UNK         0.0873 
     77 H77        30.2502   22.0167   -1.2912 H         1 UNK         0.0745 
     78 H78        30.2162   22.3693   -2.9912 H         1 UNK         0.0745 
     79 H79        32.5428   22.1152   -0.8753 H         1 UNK         0.0705 
     80 H80        33.6775   23.3771   -1.2411 H         1 UNK         0.0705 
     81 H81        34.1074   25.2254    0.3146 H         1 UNK         0.1334 
     82 H82        32.8527   24.6401    4.3716 H         1 UNK         0.1417 
     83 H83        31.1977   22.2168    1.2463 H         1 UNK         0.1562 
     84 H84        31.7231   22.0117    4.5595 H         1 UNK         0.0748 
     85 H85        30.3700   21.9411    3.4576 H         1 UNK         0.0748 
     86 H86        27.9831   24.5425    4.2563 H         1 UNK         0.0940 
     87 H87        28.9630   23.9365    2.9641 H         1 UNK         0.0940 
     88 H88        30.5364   26.0346    3.4873 H         1 UNK         0.0703 
     89 H89        28.6485   25.6024    1.5864 H         1 UNK         0.3081 
     90 H90        28.3280   28.7821    0.0474 H         1 UNK         0.0719 
     91 H91        29.8056   26.2619   -0.8599 H         1 UNK         0.0809 
     92 H92        28.9895   27.3839   -1.9536 H         1 UNK         0.0809 
     93 H93        30.3714   27.9084   -1.0060 H         1 UNK         0.0809 
     94 H94        27.1809   26.3193   -0.6761 H         1 UNK         0.2990 
     95 H95        24.3550   26.3324    1.5232 H         1 UNK         0.0690 
     96 H96        23.3047   26.1077   -0.7187 H         1 UNK         0.0788 
     97 H97        24.7748   26.6931   -1.4940 H         1 UNK         0.0788 
     98 H98        23.8469   27.7559   -0.4457 H         1 UNK         0.0788 
     99 H99        25.5364   24.5480   -0.4822 H         1 UNK         0.2993 
    100 H100       27.1013   22.4378    1.9242 H         1 UNK         0.0949 
    101 H101       25.7127   20.6365    0.9262 H         1 UNK         0.0767 
    102 H102       24.7457   21.5981    2.0314 H         1 UNK         0.0767 
    103 H103       24.5714   21.8261    0.2965 H         1 UNK         0.0767 
    104 H104       26.7385   22.1446   -0.8871 H         1 UNK         0.3013 
    105 H105       27.3455   27.5163    3.4772 H         1 UNK         0.3121 
    106 H106       27.8652   28.7968    6.1370 H         1 UNK         0.0774 
    107 H107       25.2750   28.5533    4.5157 H         1 UNK         0.0815 
    108 H108       25.4529   29.3891    6.0532 H         1 UNK         0.0815 
    109 H109       25.6718   27.6480    5.9751 H         1 UNK         0.0815 
    110 H110       27.0033   29.4137    2.6977 H         1 UNK         0.2987 
    111 H111       26.7739   32.2474    3.1426 H         1 UNK         0.0949 
    112 H112       26.6334   30.5845    0.5754 H         1 UNK         0.0806 
    113 H113       25.2757   30.9793    1.6272 H         1 UNK         0.0806 
    114 H114       26.1062   32.2528    0.7486 H         1 UNK         0.0806 
    115 H115       29.5081   30.2933    1.9247 H         1 UNK         0.3010 
    116 H116       30.5753   32.6612    0.4570 H         1 UNK         0.0829 
    117 H117       30.1869   30.5062   -0.7988 H         1 UNK         0.0813 
    118 H118       31.8670   31.0167   -0.8045 H         1 UNK         0.0813 
    119 H119       31.3625   29.7142    0.2556 H         1 UNK         0.0813 
    120 H120       32.6711   33.2607    0.6045 H         1 UNK         0.3038 
    121 H121       34.5946   33.8926    1.5242 H         1 UNK         0.0769 
    122 H122       34.8762   30.8459    1.8240 H         1 UNK         0.0811 
    123 H123       36.2167   31.9984    1.8170 H         1 UNK         0.0811 
    124 H124       35.2271   31.7937    0.3889 H         1 UNK         0.0811 
    125 H125       35.3069   31.4754    3.7262 H         1 UNK         0.3204 
    126 H126       33.9350   32.6475    6.0507 H         1 UNK         0.0748 
    127 H127       36.0350   32.6909    7.3826 H         1 UNK         0.0771 
    128 H128       36.9777   32.2222    5.9722 H         1 UNK         0.0771 
    129 H129       36.1731   33.7902    6.0213 H         1 UNK         0.0771 
    130 H130       33.2534   30.3915    4.5122 H         1 UNK         0.2980 
    131 H131       34.4047   27.9962    5.5870 H         1 UNK         0.0545 
    132 H132       31.4972   28.9621    8.2569 H         1 UNK         0.3459 
    133 H133       31.9431   30.0951    7.0053 H         1 UNK         0.3459 
    134 H134       31.8203   28.4351    4.0290 H         1 UNK         0.0616 
    135 H135       32.4141   26.8658    4.4865 H         1 UNK         0.0616 
    136 H136       34.8555   25.9936    3.8581 H         1 UNK         0.0634 
    137 H137       35.4005   26.1716    2.2132 H         1 UNK         0.0634 
@<TRIPOS>BOND
     1    1    2 1    
     2    1   72 1    
     3    1   73 1    
     4    1   74 1    
     5    2    3 2    
     6    2    4 am   BACKBONE|DICT|INTERRES
     7    4    5 1    
     8    4   75 1    
     9    5    6 1    
    10    5   35 1    
    11    5   76 1    
    12    6    7 1    
    13    6   77 1    
    14    6   78 1    
    15    7    8 1    
    16    8    9 1    
    17    8   79 1    
    18    8   80 1    
    19    9   10 ar   
    20    9   14 ar   
    21   10   11 ar   
    22   10   81 1    
    23   11   12 ar   
    24   11   71 1    
    25   12   13 ar   
    26   12   82 1    
    27   13   14 ar   
    28   13   15 1    
    29   14   83 1    
    30   15   16 1    
    31   15   84 1    
    32   15   85 1    
    33   16   17 1    
    34   17   18 1    
    35   17   86 1    
    36   17   87 1    
    37   18   19 1    
    38   18   37 1    
    39   18   88 1    
    40   19   20 am   BACKBONE|DICT|INTERRES
    41   19   89 1    
    42   20   21 2    
    43   20   22 1    
    44   22   23 1    
    45   22   24 1    
    46   22   90 1    
    47   23   91 1    
    48   23   92 1    
    49   23   93 1    
    50   24   25 am   BACKBONE|DICT|INTERRES
    51   24   94 1    
    52   25   26 2    
    53   25   27 1    
    54   27   28 1    
    55   27   29 1    
    56   27   95 1    
    57   28   96 1    
    58   28   97 1    
    59   28   98 1    
    60   29   30 am   BACKBONE|DICT|INTERRES
    61   29   99 1    
    62   30   31 2    
    63   30   32 1    
    64   32   33 1    
    65   32   34 1    
    66   32  100 1    
    67   33  101 1    
    68   33  102 1    
    69   33  103 1    
    70   34   35 am   BACKBONE|DICT|INTERRES
    71   34  104 1    
    72   35   36 2    
    73   37   38 2    
    74   37   39 am   BACKBONE|DICT|INTERRES
    75   39   40 1    
    76   39  105 1    
    77   40   41 1    
    78   40   42 1    
    79   40  106 1    
    80   41  107 1    
    81   41  108 1    
    82   41  109 1    
    83   42   43 2    
    84   42   44 am   BACKBONE|DICT|INTERRES
    85   44   45 1    
    86   44  110 1    
    87   45   46 1    
    88   45   47 1    
    89   45  111 1    
    90   46  112 1    
    91   46  113 1    
    92   46  114 1    
    93   47   48 2    
    94   47   49 am   BACKBONE|DICT|INTERRES
    95   49   50 1    
    96   49  115 1    
    97   50   51 1    
    98   50   52 1    
    99   50  116 1    
   100   51  117 1    
   101   51  118 1    
   102   51  119 1    
   103   52   53 2    
   104   52   54 am   BACKBONE|DICT|INTERRES
   105   54   55 1    
   106   54  120 1    
   107   55   56 1    
   108   55   57 1    
   109   55  121 1    
   110   56  122 1    
   111   56  123 1    
   112   56  124 1    
   113   57   58 2    
   114   57   59 am   BACKBONE|DICT|INTERRES
   115   59   60 1    
   116   59  125 1    
   117   60   61 1    
   118   60   62 1    
   119   60  126 1    
   120   61  127 1    
   121   61  128 1    
   122   61  129 1    
   123   62   63 2    
   124   62   64 am   BACKBONE|DICT|INTERRES
   125   64   65 1    
   126   64  130 1    
   127   65   66 1    
   128   65   69 1    
   129   65  131 1    
   130   66   67 am   BACKBONE|DICT|INTERRES
   131   66   68 2    
   132   67  132 1    
   133   67  133 1    
   134   69   70 1    
   135   69  134 1    
   136   69  135 1    
   137   70   71 1    
   138   71  136 1    
   139   71  137 1    
@<TRIPOS>SUBSTRUCTURE
     1 UNK         1 GROUP             0       ****    0 ROOT    
