@<TRIPOS>MOLECULE
3R136
137   139    1
SMALL
USER_CHARGES


@<TRIPOS>ATOM
      1 CA         32.9280   22.2746   -3.1934 C.3       0 UNK        -0.1979 
      2 C          31.6620   21.9225   -2.4260 C.2       0 UNK         0.4864 
      3 O          30.8918   21.0747   -2.8780 O.2       0 UNK        -0.5359 
      4 N          31.4304   22.5877   -1.2852 N.am      1 UNK        -0.4318 
      5 CA         30.3339   22.4014   -0.3164 C.3       1 UNK         0.0824 
      6 C6         30.3062   20.9956    0.3442 C.3       12 UNK        -0.0944 
      7 S7         31.8425   20.6094    1.2520 S.3       12 UNK        -0.2672 
      8 C8         31.3732   21.0033    2.9697 C.3       12 UNK         0.0333 
      9 C9         31.2130   22.5022    3.1769 C.ar      12 UNK        -0.0807 
     10 C10        32.3417   23.3097    3.3411 C.ar      12 UNK        -0.0894 
     11 C11        32.2095   24.6924    3.4962 C.ar      12 UNK        -0.0804 
     12 C12        30.9345   25.2664    3.4935 C.ar      12 UNK        -0.0824 
     13 C13        29.8001   24.4729    3.3020 C.ar      12 UNK        -0.0762 
     14 C14        29.9435   23.0885    3.1682 C.ar      12 UNK        -0.0782 
     15 C15        28.4277   25.1095    3.1474 C.3       12 UNK         0.0230 
     16 S16        27.5462   25.2889    4.7322 S.3       12 UNK        -0.2608 
     17 C17        27.9916   26.9414    5.3879 C.3       12 UNK        -0.0989 
     18 CA         28.1621   28.0972    4.3654 C.3       5 UNK         0.0716 
     19 N          27.0788   28.1687    3.3818 N.am      5 UNK        -0.4135 
     20 C          27.1346   28.9027    2.2639 C.2       4 UNK         0.5031 
     21 O          28.1028   29.6011    1.9481 O.2       4 UNK        -0.5229 
     22 CA         25.9153   28.8445    1.3299 C.3       4 UNK         0.0329 
     23 CB         25.2671   30.2300    1.1851 C.3       4 UNK        -0.2001 
     24 N          26.3013   28.3507    0.0072 N.am      4 UNK        -0.4303 
     25 C          26.6701   27.0882   -0.2413 C.2       3 UNK         0.5044 
     26 O          26.6533   26.1931    0.6070 O.2       3 UNK        -0.5152 
     27 CA         27.1352   26.7744   -1.6695 C.3       3 UNK         0.0319 
     28 CB         28.4878   27.4446   -1.9792 C.3       3 UNK        -0.2001 
     29 N          27.2555   25.3260   -1.8068 N.am      3 UNK        -0.4354 
     30 C          27.2884   24.6268   -2.9441 C.2       2 UNK         0.4964 
     31 O          27.2330   25.1425   -4.0625 O.2       2 UNK        -0.5047 
     32 CA         27.4230   23.0964   -2.7992 C.3       2 UNK         0.0288 
     33 CB         27.3419   22.3623   -4.1511 C.3       2 UNK        -0.2113 
     34 N          28.6734   22.7168   -2.1358 N.am      2 UNK        -0.4145 
     35 C          28.9267   22.7930   -0.8234 C.2       1 UNK         0.5006 
     36 O          28.0898   23.1765   -0.0051 O.2       1 UNK        -0.5103 
     37 C          28.2959   29.4492    5.0923 C.2       5 UNK         0.5055 
     38 O          27.2806   30.0377    5.4725 O.2       5 UNK        -0.5220 
     39 N          29.5374   29.9237    5.2423 N.am      6 UNK        -0.4450 
     40 CA         29.9762   31.2031    5.8141 C.3       6 UNK         0.0367 
     41 CB         29.4703   31.4039    7.2559 C.3       6 UNK        -0.1929 
     42 C          29.6561   32.4196    4.9286 C.2       6 UNK         0.5070 
     43 O          30.5126   33.2905    4.7798 O.2       6 UNK        -0.5237 
     44 N          28.4488   32.4604    4.3521 N.am      7 UNK        -0.4739 
     45 CA         27.9743   33.5275    3.4694 C.3       7 UNK         0.0276 
     46 CB         26.4540   33.4030    3.2921 C.3       7 UNK        -0.1927 
     47 C          28.6824   33.5529    2.1040 C.2       7 UNK         0.5013 
     48 O          28.9260   34.6420    1.5823 O.2       7 UNK        -0.5193 
     49 N          28.9996   32.3720    1.5569 N.am      8 UNK        -0.4253 
     50 CA         29.7259   32.2067    0.2976 C.3       8 UNK         0.0242 
     51 CB         28.7871   31.6362   -0.7808 C.3       8 UNK        -0.2000 
     52 C          30.9529   31.3130    0.5082 C.2       8 UNK         0.4948 
     53 O          32.0720   31.7467    0.2307 O.2       8 UNK        -0.5275 
     54 N          30.7321   30.0903    1.0067 N.am      9 UNK        -0.4246 
     55 CA         31.7817   29.1236    1.3192 C.3       9 UNK         0.0261 
     56 CB         31.2399   27.7071    1.0798 C.3       9 UNK        -0.1959 
     57 C          32.2346   29.3438    2.7675 C.2       9 UNK         0.5033 
     58 O          31.5464   28.9071    3.6931 O.2       9 UNK        -0.5390 
     59 N          33.3505   30.0627    2.9367 N.am      10 UNK        -0.4215 
     60 CA         33.8654   30.6300    4.1900 C.3       10 UNK         0.0240 
     61 CB         34.9303   31.6874    3.8395 C.3       10 UNK        -0.1982 
     62 C          34.3637   29.6225    5.2550 C.2       10 UNK         0.4970 
     63 O          35.4346   29.8246    5.8299 O.2       10 UNK        -0.4916 
     64 N          33.5707   28.5844    5.5365 N.am      11 UNK        -0.4279 
     65 CA         33.7519   27.6568    6.6679 C.3       11 UNK         0.1003 
     66 C          33.1654   28.1833    8.0115 C.2       11 UNK         0.5709 
     67 N          32.4930   29.3276    8.0491 N.am      11 UNK        -0.7358 
     68 O          33.3401   27.5482    9.0488 O.2       11 UNK        -0.4999 
     69 C69        33.2183   26.2388    6.3331 C.3       12 UNK        -0.0954 
     70 S70        34.3190   25.3590    5.1793 S.3       12 UNK        -0.2268 
     71 C71        33.4504   25.5672    3.5989 C.3       12 UNK         0.0203 
     72 H72        32.6753   22.6409   -4.1884 H         1 UNK         0.0888 
     73 H73        33.5127   23.0429   -2.6872 H         1 UNK         0.0888 
     74 H74        33.5551   21.3903   -3.3048 H         1 UNK         0.0888 
     75 H75        32.1034   23.2882   -1.0061 H         1 UNK         0.3017 
     76 H76        30.5508   23.1266    0.4683 H         1 UNK         0.0873 
     77 H77        29.4646   20.9056    1.0340 H         1 UNK         0.0745 
     78 H78        30.1519   20.2218   -0.4098 H         1 UNK         0.0745 
     79 H79        32.1461   20.6256    3.6407 H         1 UNK         0.0705 
     80 H80        30.4569   20.4727    3.2334 H         1 UNK         0.0705 
     81 H81        33.3271   22.8637    3.3282 H         1 UNK         0.1334 
     82 H82        30.8294   26.3358    3.6016 H         1 UNK         0.1417 
     83 H83        29.0673   22.4735    3.0128 H         1 UNK         0.1562 
     84 H84        27.8150   24.4815    2.4985 H         1 UNK         0.0748 
     85 H85        28.5128   26.0550    2.6166 H         1 UNK         0.0748 
     86 H86        28.9119   26.8265    5.9643 H         1 UNK         0.0940 
     87 H87        27.2203   27.1982    6.1174 H         1 UNK         0.0940 
     88 H88        29.0863   27.9235    3.8135 H         1 UNK         0.0703 
     89 H89        26.2541   27.6234    3.5832 H         1 UNK         0.3081 
     90 H90        25.1718   28.1623    1.7480 H         1 UNK         0.0719 
     91 H91        25.9692   30.9701    0.7981 H         1 UNK         0.0809 
     92 H92        24.4087   30.1989    0.5140 H         1 UNK         0.0809 
     93 H93        24.9058   30.5884    2.1494 H         1 UNK         0.0809 
     94 H94        26.3570   29.0335   -0.7337 H         1 UNK         0.2990 
     95 H95        26.3738   27.1377   -2.3628 H         1 UNK         0.0690 
     96 H96        28.7857   27.2782   -3.0143 H         1 UNK         0.0788 
     97 H97        29.2770   27.0505   -1.3404 H         1 UNK         0.0788 
     98 H98        28.4483   28.5236   -1.8280 H         1 UNK         0.0788 
     99 H99        27.2926   24.8256   -0.9203 H         1 UNK         0.2993 
    100 H100       26.5853   22.7569   -2.1861 H         1 UNK         0.0949 
    101 H101       28.1611   22.6445   -4.8136 H         1 UNK         0.0767 
    102 H102       27.3778   21.2809   -4.0170 H         1 UNK         0.0767 
    103 H103       26.4085   22.5927   -4.6667 H         1 UNK         0.0767 
    104 H104       29.4066   22.3270   -2.7198 H         1 UNK         0.3013 
    105 H105       30.2823   29.4077    4.7705 H         1 UNK         0.3121 
    106 H106       31.0622   31.1365    5.8643 H         1 UNK         0.0774 
    107 H107       29.9343   32.2809    7.7087 H         1 UNK         0.0815 
    108 H108       28.3916   31.5565    7.2959 H         1 UNK         0.0815 
    109 H109       29.7108   30.5473    7.8852 H         1 UNK         0.0815 
    110 H110       27.8055   31.7039    4.5664 H         1 UNK         0.2987 
    111 H111       28.1804   34.4820    3.9590 H         1 UNK         0.0949 
    112 H112       26.0696   34.1874    2.6386 H         1 UNK         0.0806 
    113 H113       26.1808   32.4460    2.8510 H         1 UNK         0.0806 
    114 H114       25.9345   33.4930    4.2462 H         1 UNK         0.0806 
    115 H115       28.7429   31.5188    2.0426 H         1 UNK         0.3010 
    116 H116       30.0952   33.1709   -0.0583 H         1 UNK         0.0829 
    117 H117       27.9631   32.3202   -0.9846 H         1 UNK         0.0813 
    118 H118       29.3198   31.4811   -1.7198 H         1 UNK         0.0813 
    119 H119       28.3578   30.6792   -0.4864 H         1 UNK         0.0813 
    120 H120       29.7824   29.8292    1.2674 H         1 UNK         0.3038 
    121 H121       32.6362   29.2654    0.6538 H         1 UNK         0.0769 
    122 H122       31.9653   26.9519    1.3805 H         1 UNK         0.0811 
    123 H123       31.0405   27.5466    0.0219 H         1 UNK         0.0811 
    124 H124       30.3132   27.5262    1.6242 H         1 UNK         0.0811 
    125 H125       33.8338   30.3620    2.1012 H         1 UNK         0.3204 
    126 H126       33.0366   31.1658    4.6540 H         1 UNK         0.0748 
    127 H127       35.2754   32.2129    4.7311 H         1 UNK         0.0771 
    128 H128       35.8037   31.2371    3.3660 H         1 UNK         0.0771 
    129 H129       34.5322   32.4436    3.1622 H         1 UNK         0.0771 
    130 H130       32.7128   28.4923    4.9986 H         1 UNK         0.2980 
    131 H131       34.8225   27.5619    6.8590 H         1 UNK         0.0545 
    132 H132       32.3596   29.8703    7.2145 H         1 UNK         0.3459 
    133 H133       32.1332   29.6535    8.9317 H         1 UNK         0.3459 
    134 H134       32.2028   26.2864    5.9375 H         1 UNK         0.0616 
    135 H135       33.1616   25.6175    7.2286 H         1 UNK         0.0616 
    136 H136       34.1341   25.3095    2.7891 H         1 UNK         0.0634 
    137 H137       33.2036   26.6193    3.4637 H         1 UNK         0.0634 
@<TRIPOS>BOND
     1    1    2 1    
     2    1   72 1    
     3    1   73 1    
     4    1   74 1    
     5    2    3 2    
     6    2    4 am   BACKBONE|DICT|INTERRES
     7    4    5 1    
     8    4   75 1    
     9    5    6 1    
    10    5   35 1    
    11    5   76 1    
    12    6    7 1    
    13    6   77 1    
    14    6   78 1    
    15    7    8 1    
    16    8    9 1    
    17    8   79 1    
    18    8   80 1    
    19    9   10 ar   
    20    9   14 ar   
    21   10   11 ar   
    22   10   81 1    
    23   11   12 ar   
    24   11   71 1    
    25   12   13 ar   
    26   12   82 1    
    27   13   14 ar   
    28   13   15 1    
    29   14   83 1    
    30   15   16 1    
    31   15   84 1    
    32   15   85 1    
    33   16   17 1    
    34   17   18 1    
    35   17   86 1    
    36   17   87 1    
    37   18   19 1    
    38   18   37 1    
    39   18   88 1    
    40   19   20 am   BACKBONE|DICT|INTERRES
    41   19   89 1    
    42   20   21 2    
    43   20   22 1    
    44   22   23 1    
    45   22   24 1    
    46   22   90 1    
    47   23   91 1    
    48   23   92 1    
    49   23   93 1    
    50   24   25 am   BACKBONE|DICT|INTERRES
    51   24   94 1    
    52   25   26 2    
    53   25   27 1    
    54   27   28 1    
    55   27   29 1    
    56   27   95 1    
    57   28   96 1    
    58   28   97 1    
    59   28   98 1    
    60   29   30 am   BACKBONE|DICT|INTERRES
    61   29   99 1    
    62   30   31 2    
    63   30   32 1    
    64   32   33 1    
    65   32   34 1    
    66   32  100 1    
    67   33  101 1    
    68   33  102 1    
    69   33  103 1    
    70   34   35 am   BACKBONE|DICT|INTERRES
    71   34  104 1    
    72   35   36 2    
    73   37   38 2    
    74   37   39 am   BACKBONE|DICT|INTERRES
    75   39   40 1    
    76   39  105 1    
    77   40   41 1    
    78   40   42 1    
    79   40  106 1    
    80   41  107 1    
    81   41  108 1    
    82   41  109 1    
    83   42   43 2    
    84   42   44 am   BACKBONE|DICT|INTERRES
    85   44   45 1    
    86   44  110 1    
    87   45   46 1    
    88   45   47 1    
    89   45  111 1    
    90   46  112 1    
    91   46  113 1    
    92   46  114 1    
    93   47   48 2    
    94   47   49 am   BACKBONE|DICT|INTERRES
    95   49   50 1    
    96   49  115 1    
    97   50   51 1    
    98   50   52 1    
    99   50  116 1    
   100   51  117 1    
   101   51  118 1    
   102   51  119 1    
   103   52   53 2    
   104   52   54 am   BACKBONE|DICT|INTERRES
   105   54   55 1    
   106   54  120 1    
   107   55   56 1    
   108   55   57 1    
   109   55  121 1    
   110   56  122 1    
   111   56  123 1    
   112   56  124 1    
   113   57   58 2    
   114   57   59 am   BACKBONE|DICT|INTERRES
   115   59   60 1    
   116   59  125 1    
   117   60   61 1    
   118   60   62 1    
   119   60  126 1    
   120   61  127 1    
   121   61  128 1    
   122   61  129 1    
   123   62   63 2    
   124   62   64 am   BACKBONE|DICT|INTERRES
   125   64   65 1    
   126   64  130 1    
   127   65   66 1    
   128   65   69 1    
   129   65  131 1    
   130   66   67 am   BACKBONE|DICT|INTERRES
   131   66   68 2    
   132   67  132 1    
   133   67  133 1    
   134   69   70 1    
   135   69  134 1    
   136   69  135 1    
   137   70   71 1    
   138   71  136 1    
   139   71  137 1    
@<TRIPOS>SUBSTRUCTURE
     1 UNK         1 GROUP             0       ****    0 ROOT    
