@<TRIPOS>MOLECULE
3R136
137   139    1
SMALL
USER_CHARGES


@<TRIPOS>ATOM
      1 CA         28.3671   19.2251    1.8727 C.3       0 UNK        -0.1979 
      2 C          28.6122   19.7772    0.4763 C.2       0 UNK         0.4864 
      3 O          28.8199   19.0023   -0.4582 O.2       0 UNK        -0.5359 
      4 N          28.5756   21.1080    0.3339 N.am      1 UNK        -0.4318 
      5 CA         28.7834   21.8405   -0.9233 C.3       1 UNK         0.0824 
      6 C6         30.0452   22.7506   -0.8878 C.3       12 UNK        -0.0944 
      7 S7         31.5894   21.8278   -0.5510 S.3       12 UNK        -0.2672 
      8 C8         32.5859   23.0319    0.4096 C.3       12 UNK         0.0333 
      9 C9         32.0378   23.4344    1.7830 C.ar      12 UNK        -0.0807 
     10 C10        32.6558   24.4789    2.4787 C.ar      12 UNK        -0.0894 
     11 C11        32.1563   24.9140    3.7117 C.ar      12 UNK        -0.0804 
     12 C12        31.0105   24.3162    4.2448 C.ar      12 UNK        -0.0824 
     13 C13        30.3751   23.2822    3.5532 C.ar      12 UNK        -0.0762 
     14 C14        30.9247   22.8156    2.3592 C.ar      12 UNK        -0.0782 
     15 C15        29.0606   22.6951    4.0395 C.3       12 UNK         0.0230 
     16 S16        27.7039   23.1541    2.9045 S.3       12 UNK        -0.2608 
     17 C17        27.2277   24.8001    3.5295 C.3       12 UNK        -0.0989 
     18 CA         28.0456   25.9751    2.9321 C.3       5 UNK         0.0716 
     19 N          27.8317   26.1706    1.4935 N.am      5 UNK        -0.4135 
     20 C          28.5249   27.0447    0.7413 C.2       4 UNK         0.5031 
     21 O          29.4343   27.7495    1.1835 O.2       4 UNK        -0.5229 
     22 CA         28.1682   27.1811   -0.7510 C.3       4 UNK         0.0329 
     23 CB         29.2477   26.5323   -1.6296 C.3       4 UNK        -0.2001 
     24 N          26.8537   26.6381   -1.0968 N.am      4 UNK        -0.4303 
     25 C          25.6936   27.2453   -0.8017 C.2       3 UNK         0.5044 
     26 O          25.6237   28.3443   -0.2517 O.2       3 UNK        -0.5152 
     27 CA         24.3831   26.5230   -1.1711 C.3       3 UNK         0.0319 
     28 CB         23.7402   27.1769   -2.4054 C.3       3 UNK        -0.2001 
     29 N          24.5181   25.0841   -1.4132 N.am      3 UNK        -0.4354 
     30 C          24.9281   24.1768   -0.5171 C.2       2 UNK         0.4964 
     31 O          25.2702   24.4609    0.6319 O.2       2 UNK        -0.5047 
     32 CA         24.9996   22.7094   -0.9825 C.3       2 UNK         0.0288 
     33 CB         24.5153   22.4729   -2.4327 C.3       2 UNK        -0.2113 
     34 N          26.3421   22.1490   -0.7988 N.am      2 UNK        -0.4145 
     35 C          27.5007   22.6215   -1.2908 C.2       1 UNK         0.5006 
     36 O          27.5750   23.6270   -2.0006 O.2       1 UNK        -0.5103 
     37 C          27.7548   27.2744    3.7094 C.2       5 UNK         0.5055 
     38 O          26.5931   27.6756    3.8046 O.2       5 UNK        -0.5220 
     39 N          28.8199   27.8966    4.2365 N.am      6 UNK        -0.4450 
     40 CA         28.8320   29.1610    4.9815 C.3       6 UNK         0.0367 
     41 CB         28.1076   29.0085    6.3360 C.3       6 UNK        -0.1929 
     42 C          28.3258   30.3645    4.1593 C.2       6 UNK         0.5070 
     43 O          27.7383   31.2882    4.7248 O.2       6 UNK        -0.5237 
     44 N          28.5750   30.3507    2.8403 N.am      7 UNK        -0.4739 
     45 CA         28.2167   31.4373    1.9181 C.3       7 UNK         0.0276 
     46 CB         28.3189   30.9295    0.4725 C.3       7 UNK        -0.1927 
     47 C          29.0570   32.7156    2.1034 C.2       7 UNK         0.5013 
     48 O          28.6352   33.7852    1.6611 O.2       7 UNK        -0.5193 
     49 N          30.2162   32.5865    2.7543 N.am      8 UNK        -0.4253 
     50 CA         31.1053   33.6648    3.1652 C.3       8 UNK         0.0242 
     51 CB         32.1684   33.8992    2.0766 C.3       8 UNK        -0.2000 
     52 C          31.7555   33.2491    4.4888 C.2       8 UNK         0.4948 
     53 O          31.7624   32.0584    4.8143 O.2       8 UNK        -0.5275 
     54 N          32.3169   34.2267    5.2137 N.am      9 UNK        -0.4246 
     55 CA         33.0717   34.0016    6.4528 C.3       9 UNK         0.0261 
     56 CB         33.3701   35.3477    7.1328 C.3       9 UNK        -0.1959 
     57 C          34.3699   33.2102    6.2156 C.2       9 UNK         0.5033 
     58 O          34.7089   32.3373    7.0158 O.2       9 UNK        -0.5390 
     59 N          35.0406   33.4869    5.0893 N.am      10 UNK        -0.4215 
     60 CA         36.1944   32.7409    4.5858 C.3       10 UNK         0.0240 
     61 CB         37.0939   33.6968    3.7789 C.3       10 UNK        -0.1982 
     62 C          35.7274   31.5236    3.7641 C.2       10 UNK         0.4970 
     63 O          36.0423   31.4222    2.5770 O.2       10 UNK        -0.4916 
     64 N          34.9486   30.6438    4.4046 N.am      11 UNK        -0.4279 
     65 CA         34.4113   29.4060    3.8268 C.3       11 UNK         0.1003 
     66 C          35.5329   28.3973    3.4504 C.2       11 UNK         0.5709 
     67 N          35.4310   27.7490    2.2979 N.am      11 UNK        -0.7358 
     68 O          36.4732   28.1759    4.2117 O.2       11 UNK        -0.4999 
     69 C69        33.3593   28.7768    4.7782 C.3       12 UNK        -0.0954 
     70 S70        32.2094   27.6594    3.9116 S.3       12 UNK        -0.2268 
     71 C71        32.8447   26.0459    4.4538 C.3       12 UNK         0.0203 
     72 H72        27.6564   18.4000    1.8325 H         1 UNK         0.0888 
     73 H73        29.2990   18.8522    2.2967 H         1 UNK         0.0888 
     74 H74        27.9633   19.9814    2.5451 H         1 UNK         0.0888 
     75 H75        28.3604   21.6888    1.1357 H         1 UNK         0.3017 
     76 H76        28.9235   21.1326   -1.7426 H         1 UNK         0.0873 
     77 H77        30.1790   23.2519   -1.8479 H         1 UNK         0.0745 
     78 H78        29.9194   23.5403   -0.1455 H         1 UNK         0.0745 
     79 H79        32.7130   23.9286   -0.1990 H         1 UNK         0.0705 
     80 H80        33.5822   22.6103    0.5488 H         1 UNK         0.0705 
     81 H81        33.5240   24.9655    2.0548 H         1 UNK         0.1334 
     82 H82        30.5992   24.6759    5.1783 H         1 UNK         0.1417 
     83 H83        30.4414   21.9939    1.8600 H         1 UNK         0.1562 
     84 H84        28.8318   23.0158    5.0568 H         1 UNK         0.0748 
     85 H85        29.1460   21.6083    4.0741 H         1 UNK         0.0748 
     86 H86        27.3108   24.7850    4.6181 H         1 UNK         0.0940 
     87 H87        26.1654   24.9409    3.3196 H         1 UNK         0.0940 
     88 H88        29.1033   25.7452    3.0529 H         1 UNK         0.0703 
     89 H89        27.0729   25.6434    1.0782 H         1 UNK         0.3081 
     90 H90        28.1630   28.2468   -0.9855 H         1 UNK         0.0719 
     91 H91        30.2220   26.9889   -1.4499 H         1 UNK         0.0809 
     92 H92        29.0245   26.6496   -2.6901 H         1 UNK         0.0809 
     93 H93        29.3473   25.4697   -1.4223 H         1 UNK         0.0809 
     94 H94        26.8364   25.7260   -1.5382 H         1 UNK         0.2990 
     95 H95        23.7032   26.6482   -0.3258 H         1 UNK         0.0690 
     96 H96        22.7627   26.7451   -2.6212 H         1 UNK         0.0788 
     97 H97        24.3636   27.0619   -3.2931 H         1 UNK         0.0788 
     98 H98        23.5910   28.2463   -2.2488 H         1 UNK         0.0788 
     99 H99        24.2848   24.7590   -2.3404 H         1 UNK         0.2993 
    100 H100       24.3368   22.1539   -0.3171 H         1 UNK         0.0949 
    101 H101       23.4829   22.7995   -2.5662 H         1 UNK         0.0767 
    102 H102       25.1318   22.9950   -3.1657 H         1 UNK         0.0767 
    103 H103       24.5430   21.4119   -2.6821 H         1 UNK         0.0767 
    104 H104       26.3930   21.3330   -0.2061 H         1 UNK         0.3013 
    105 H105       29.7359   27.5111    4.0405 H         1 UNK         0.3121 
    106 H106       29.8803   29.3744    5.1970 H         1 UNK         0.0774 
    107 H107       28.2403   29.8985    6.9524 H         1 UNK         0.0815 
    108 H108       27.0350   28.8604    6.2075 H         1 UNK         0.0815 
    109 H109       28.4988   28.1637    6.9025 H         1 UNK         0.0815 
    110 H110       29.0336   29.5404    2.4375 H         1 UNK         0.2987 
    111 H111       27.1765   31.7119    2.1073 H         1 UNK         0.0949 
    112 H112       27.6033   30.1282    0.2944 H         1 UNK         0.0806 
    113 H113       28.0944   31.7227   -0.2420 H         1 UNK         0.0806 
    114 H114       29.3165   30.5527    0.2435 H         1 UNK         0.0806 
    115 H115       30.4576   31.6844    3.1464 H         1 UNK         0.3010 
    116 H116       30.5288   34.5777    3.3303 H         1 UNK         0.0829 
    117 H117       31.7073   34.1575    1.1231 H         1 UNK         0.0813 
    118 H118       32.8346   34.7198    2.3445 H         1 UNK         0.0813 
    119 H119       32.7858   33.0133    1.9195 H         1 UNK         0.0813 
    120 H120       32.2520   35.1801    4.8851 H         1 UNK         0.3038 
    121 H121       32.4445   33.4116    7.1249 H         1 UNK         0.0769 
    122 H122       33.9768   35.9978    6.5012 H         1 UNK         0.0811 
    123 H123       33.9155   35.1993    8.0660 H         1 UNK         0.0811 
    124 H124       32.4511   35.8801    7.3790 H         1 UNK         0.0811 
    125 H125       34.6651   34.1972    4.4784 H         1 UNK         0.3204 
    126 H126       36.7806   32.3625    5.4262 H         1 UNK         0.0748 
    127 H127       37.9814   33.1802    3.4107 H         1 UNK         0.0771 
    128 H128       36.5742   34.1108    2.9138 H         1 UNK         0.0771 
    129 H129       37.4380   34.5293    4.3931 H         1 UNK         0.0771 
    130 H130       34.7385   30.8155    5.3794 H         1 UNK         0.2980 
    131 H131       33.8997   29.7037    2.9090 H         1 UNK         0.0545 
    132 H132       34.6545   27.9150    1.6775 H         1 UNK         0.3459 
    133 H133       36.1465   27.0872    2.0426 H         1 UNK         0.3459 
    134 H134       33.8348   28.2655    5.6174 H         1 UNK         0.0616 
    135 H135       32.7433   29.5603    5.2220 H         1 UNK         0.0616 
    136 H136       33.9210   25.9964    4.2836 H         1 UNK         0.0634 
    137 H137       32.6960   25.9415    5.5297 H         1 UNK         0.0634 
@<TRIPOS>BOND
     1    1    2 1    
     2    1   72 1    
     3    1   73 1    
     4    1   74 1    
     5    2    3 2    
     6    2    4 am   BACKBONE|DICT|INTERRES
     7    4    5 1    
     8    4   75 1    
     9    5    6 1    
    10    5   35 1    
    11    5   76 1    
    12    6    7 1    
    13    6   77 1    
    14    6   78 1    
    15    7    8 1    
    16    8    9 1    
    17    8   79 1    
    18    8   80 1    
    19    9   10 ar   
    20    9   14 ar   
    21   10   11 ar   
    22   10   81 1    
    23   11   12 ar   
    24   11   71 1    
    25   12   13 ar   
    26   12   82 1    
    27   13   14 ar   
    28   13   15 1    
    29   14   83 1    
    30   15   16 1    
    31   15   84 1    
    32   15   85 1    
    33   16   17 1    
    34   17   18 1    
    35   17   86 1    
    36   17   87 1    
    37   18   19 1    
    38   18   37 1    
    39   18   88 1    
    40   19   20 am   BACKBONE|DICT|INTERRES
    41   19   89 1    
    42   20   21 2    
    43   20   22 1    
    44   22   23 1    
    45   22   24 1    
    46   22   90 1    
    47   23   91 1    
    48   23   92 1    
    49   23   93 1    
    50   24   25 am   BACKBONE|DICT|INTERRES
    51   24   94 1    
    52   25   26 2    
    53   25   27 1    
    54   27   28 1    
    55   27   29 1    
    56   27   95 1    
    57   28   96 1    
    58   28   97 1    
    59   28   98 1    
    60   29   30 am   BACKBONE|DICT|INTERRES
    61   29   99 1    
    62   30   31 2    
    63   30   32 1    
    64   32   33 1    
    65   32   34 1    
    66   32  100 1    
    67   33  101 1    
    68   33  102 1    
    69   33  103 1    
    70   34   35 am   BACKBONE|DICT|INTERRES
    71   34  104 1    
    72   35   36 2    
    73   37   38 2    
    74   37   39 am   BACKBONE|DICT|INTERRES
    75   39   40 1    
    76   39  105 1    
    77   40   41 1    
    78   40   42 1    
    79   40  106 1    
    80   41  107 1    
    81   41  108 1    
    82   41  109 1    
    83   42   43 2    
    84   42   44 am   BACKBONE|DICT|INTERRES
    85   44   45 1    
    86   44  110 1    
    87   45   46 1    
    88   45   47 1    
    89   45  111 1    
    90   46  112 1    
    91   46  113 1    
    92   46  114 1    
    93   47   48 2    
    94   47   49 am   BACKBONE|DICT|INTERRES
    95   49   50 1    
    96   49  115 1    
    97   50   51 1    
    98   50   52 1    
    99   50  116 1    
   100   51  117 1    
   101   51  118 1    
   102   51  119 1    
   103   52   53 2    
   104   52   54 am   BACKBONE|DICT|INTERRES
   105   54   55 1    
   106   54  120 1    
   107   55   56 1    
   108   55   57 1    
   109   55  121 1    
   110   56  122 1    
   111   56  123 1    
   112   56  124 1    
   113   57   58 2    
   114   57   59 am   BACKBONE|DICT|INTERRES
   115   59   60 1    
   116   59  125 1    
   117   60   61 1    
   118   60   62 1    
   119   60  126 1    
   120   61  127 1    
   121   61  128 1    
   122   61  129 1    
   123   62   63 2    
   124   62   64 am   BACKBONE|DICT|INTERRES
   125   64   65 1    
   126   64  130 1    
   127   65   66 1    
   128   65   69 1    
   129   65  131 1    
   130   66   67 am   BACKBONE|DICT|INTERRES
   131   66   68 2    
   132   67  132 1    
   133   67  133 1    
   134   69   70 1    
   135   69  134 1    
   136   69  135 1    
   137   70   71 1    
   138   71  136 1    
   139   71  137 1    
@<TRIPOS>SUBSTRUCTURE
     1 UNK         1 GROUP             0       ****    0 ROOT    
