@<TRIPOS>MOLECULE
3R136
137   139    1
SMALL
USER_CHARGES


@<TRIPOS>ATOM
      1 CA         33.8944   24.2970   -3.2143 C.3       0 UNK        -0.1979 
      2 C          32.9070   25.1326   -2.4126 C.2       0 UNK         0.4864 
      3 O          32.7932   26.3369   -2.6474 O.2       0 UNK        -0.5359 
      4 N          32.2009   24.5047   -1.4642 N.am      1 UNK        -0.4318 
      5 CA         31.1539   25.1259   -0.6478 C.3       1 UNK         0.0824 
      6 C6         30.9443   24.3615    0.6817 C.3       12 UNK        -0.0944 
      7 S7         30.4647   22.6060    0.5006 S.3       12 UNK        -0.2672 
      8 C8         31.1835   21.8772    2.0082 C.3       12 UNK         0.0333 
      9 C9         30.6266   22.5254    3.2679 C.ar      12 UNK        -0.0807 
     10 C10        31.3441   23.5409    3.9077 C.ar      12 UNK        -0.0894 
     11 C11        30.8219   24.1763    5.0359 C.ar      12 UNK        -0.0804 
     12 C12        29.5893   23.7648    5.5480 C.ar      12 UNK        -0.0824 
     13 C13        28.8580   22.7540    4.9146 C.ar      12 UNK        -0.0762 
     14 C14        29.3849   22.1324    3.7778 C.ar      12 UNK        -0.0782 
     15 C15        27.4902   22.3501    5.4500 C.3       12 UNK         0.0230 
     16 S16        26.1203   22.9957    4.4304 S.3       12 UNK        -0.2608 
     17 C17        26.4153   24.7963    4.4729 C.3       12 UNK        -0.0989 
     18 CA         26.6879   25.3554    3.0467 C.3       5 UNK         0.0716 
     19 N          25.4880   25.5120    2.2169 N.am      5 UNK        -0.4135 
     20 C          24.3959   26.2490    2.4762 C.2       4 UNK         0.5031 
     21 O          24.2442   26.8872    3.5200 O.2       4 UNK        -0.5229 
     22 CA         23.2951   26.3228    1.3955 C.3       4 UNK         0.0329 
     23 CB         22.7564   27.7578    1.2458 C.3       4 UNK        -0.2001 
     24 N          23.7586   25.8640    0.0852 N.am      4 UNK        -0.4303 
     25 C          23.6757   24.6118   -0.3849 C.2       3 UNK         0.5044 
     26 O          23.1043   23.6927    0.2012 O.2       3 UNK        -0.5152 
     27 CA         24.3966   24.3323   -1.7199 C.3       3 UNK         0.0319 
     28 CB         23.4121   24.4340   -2.8959 C.3       3 UNK        -0.2001 
     29 N          25.5394   25.2253   -1.9615 N.am      3 UNK        -0.4354 
     30 C          26.6346   25.2775   -1.1898 C.2       2 UNK         0.4964 
     31 O          26.8192   24.5364   -0.2222 O.2       2 UNK        -0.5047 
     32 CA         27.6271   26.4103   -1.4929 C.3       2 UNK         0.0288 
     33 CB         27.1004   27.7380   -0.9241 C.3       2 UNK        -0.2113 
     34 N          28.9401   26.1418   -0.9068 N.am      2 UNK        -0.4145 
     35 C          29.8413   25.3081   -1.4412 C.2       1 UNK         0.5006 
     36 O          29.6654   24.7078   -2.5070 O.2       1 UNK        -0.5103 
     37 C          27.5309   26.6434    3.0626 C.2       5 UNK         0.5055 
     38 O          28.6089   26.6571    2.4664 O.2       5 UNK        -0.5220 
     39 N          27.0212   27.6851    3.7370 N.am      6 UNK        -0.4450 
     40 CA         27.6765   28.9734    3.9826 C.3       6 UNK         0.0367 
     41 CB         26.7070   29.8979    4.7360 C.3       6 UNK        -0.1929 
     42 C          28.1814   29.6488    2.6967 C.2       6 UNK         0.5070 
     43 O          27.4169   29.7905    1.7404 O.2       6 UNK        -0.5237 
     44 N          29.4550   30.0502    2.7063 N.am      7 UNK        -0.4739 
     45 CA         30.1775   30.5930    1.5603 C.3       7 UNK         0.0276 
     46 CB         30.8303   29.4302    0.7854 C.3       7 UNK        -0.1927 
     47 C          31.2197   31.6145    2.0359 C.2       7 UNK         0.5013 
     48 O          31.4221   31.7788    3.2444 O.2       7 UNK        -0.5193 
     49 N          31.8626   32.2770    1.0654 N.am      8 UNK        -0.4253 
     50 CA         32.9114   33.2831    1.2550 C.3       8 UNK         0.0242 
     51 CB         33.3246   33.8273   -0.1233 C.3       8 UNK        -0.2000 
     52 C          34.1441   32.7563    2.0130 C.2       8 UNK         0.4948 
     53 O          34.3758   31.5454    2.0603 O.2       8 UNK        -0.5275 
     54 N          34.9106   33.6947    2.5890 N.am      9 UNK        -0.4246 
     55 CA         36.1064   33.4707    3.4153 C.3       9 UNK         0.0261 
     56 CB         37.2571   32.8810    2.5706 C.3       9 UNK        -0.1959 
     57 C          35.8124   32.6489    4.6880 C.2       9 UNK         0.5033 
     58 O          36.6560   31.8587    5.1152 O.2       9 UNK        -0.5390 
     59 N          34.6158   32.8621    5.2600 N.am      10 UNK        -0.4215 
     60 CA         34.0366   32.1647    6.4129 C.3       10 UNK         0.0240 
     61 CB         34.8197   32.4864    7.7048 C.3       10 UNK        -0.1982 
     62 C          33.8851   30.6542    6.1524 C.2       10 UNK         0.4970 
     63 O          34.4524   29.8414    6.8856 O.2       10 UNK        -0.4916 
     64 N          33.1144   30.3157    5.1095 N.am      11 UNK        -0.4279 
     65 CA         32.8434   28.9416    4.6640 C.3       11 UNK         0.1003 
     66 C          34.0861   28.2439    4.0341 C.2       11 UNK         0.5709 
     67 N          34.8624   28.9421    3.2141 N.am      11 UNK        -0.7358 
     68 O          34.3568   27.0697    4.2743 O.2       11 UNK        -0.4999 
     69 C69        32.1021   28.1068    5.7526 C.3       12 UNK        -0.0954 
     70 S70        30.9293   26.9155    5.0344 S.3       12 UNK        -0.2268 
     71 C71        31.5686   25.3373    5.6711 C.3       12 UNK         0.0203 
     72 H72        34.9026   24.6939   -3.0993 H         1 UNK         0.0888 
     73 H73        33.9015   23.2553   -2.8936 H         1 UNK         0.0888 
     74 H74        33.6354   24.3239   -4.2724 H         1 UNK         0.0888 
     75 H75        32.3036   23.5076   -1.3398 H         1 UNK         0.3017 
     76 H76        31.4965   26.1303   -0.3869 H         1 UNK         0.0873 
     77 H77        30.1979   24.8573    1.3043 H         1 UNK         0.0745 
     78 H78        31.8744   24.4107    1.2485 H         1 UNK         0.0745 
     79 H79        32.2699   21.9737    1.9739 H         1 UNK         0.0705 
     80 H80        30.9726   20.8069    2.0205 H         1 UNK         0.0705 
     81 H81        32.2974   23.8612    3.5104 H         1 UNK         0.1334 
     82 H82        29.1849   24.2594    6.4207 H         1 UNK         0.1417 
     83 H83        28.8176   21.3598    3.2765 H         1 UNK         0.1562 
     84 H84        27.3614   22.6942    6.4776 H         1 UNK         0.0748 
     85 H85        27.4218   21.2618    5.4844 H         1 UNK         0.0748 
     86 H86        27.2489   25.0092    5.1410 H         1 UNK         0.0940 
     87 H87        25.5570   25.2744    4.9443 H         1 UNK         0.0940 
     88 H88        27.3057   24.6224    2.5234 H         1 UNK         0.0703 
     89 H89        25.5574   25.0529    1.3159 H         1 UNK         0.3081 
     90 H90        22.4738   25.6875    1.7334 H         1 UNK         0.0719 
     91 H91        23.5455   28.4581    0.9684 H         1 UNK         0.0809 
     92 H92        21.9759   27.8119    0.4865 H         1 UNK         0.0809 
     93 H93        22.3184   28.1139    2.1793 H         1 UNK         0.0809 
     94 H94        24.2456   26.5451   -0.4785 H         1 UNK         0.2990 
     95 H95        24.7763   23.3091   -1.6779 H         1 UNK         0.0690 
     96 H96        23.8879   24.1586   -3.8373 H         1 UNK         0.0788 
     97 H97        23.0115   25.4429   -3.0030 H         1 UNK         0.0788 
     98 H98        22.5653   23.7607   -2.7545 H         1 UNK         0.0788 
     99 H99        25.4547   25.8684   -2.7364 H         1 UNK         0.2993 
    100 H100       27.7344   26.5051   -2.5759 H         1 UNK         0.0949 
    101 H101       27.8082   28.5512   -1.0873 H         1 UNK         0.0767 
    102 H102       26.1627   28.0301   -1.3979 H         1 UNK         0.0767 
    103 H103       26.9167   27.6699    0.1491 H         1 UNK         0.0767 
    104 H104       29.1049   26.5218    0.0162 H         1 UNK         0.3013 
    105 H105       26.0687   27.5864    4.0727 H         1 UNK         0.3121 
    106 H106       28.5314   28.7748    4.6315 H         1 UNK         0.0774 
    107 H107       27.1718   30.8616    4.9487 H         1 UNK         0.0815 
    108 H108       25.8046   30.0918    4.1543 H         1 UNK         0.0815 
    109 H109       26.4056   29.4664    5.6906 H         1 UNK         0.0815 
    110 H110       29.9940   29.9976    3.5603 H         1 UNK         0.2987 
    111 H111       29.4791   31.1193    0.9054 H         1 UNK         0.0949 
    112 H112       31.3441   29.7816   -0.1098 H         1 UNK         0.0806 
    113 H113       31.5625   28.9002    1.3957 H         1 UNK         0.0806 
    114 H114       30.0833   28.7057    0.4607 H         1 UNK         0.0806 
    115 H115       31.6425   32.0477    0.1076 H         1 UNK         0.3010 
    116 H116       32.4768   34.0966    1.8397 H         1 UNK         0.0829 
    117 H117       32.4748   34.2596   -0.6522 H         1 UNK         0.0813 
    118 H118       34.0759   34.6128   -0.0312 H         1 UNK         0.0813 
    119 H119       33.7500   33.0446   -0.7531 H         1 UNK         0.0813 
    120 H120       34.6393   34.6626    2.4769 H         1 UNK         0.3038 
    121 H121       36.4274   34.4541    3.7622 H         1 UNK         0.0769 
    122 H122       38.1851   32.8481    3.1427 H         1 UNK         0.0811 
    123 H123       37.4471   33.4832    1.6822 H         1 UNK         0.0811 
    124 H124       37.0412   31.8625    2.2461 H         1 UNK         0.0811 
    125 H125       34.0064   33.5303    4.8095 H         1 UNK         0.3204 
    126 H126       33.0264   32.5578    6.5383 H         1 UNK         0.0748 
    127 H127       34.3355   32.0398    8.5741 H         1 UNK         0.0771 
    128 H128       35.8402   32.1035    7.6708 H         1 UNK         0.0771 
    129 H129       34.8714   33.5610    7.8796 H         1 UNK         0.0771 
    130 H130       32.6923   31.0417    4.5375 H         1 UNK         0.2980 
    131 H131       32.1535   29.0677    3.8299 H         1 UNK         0.0545 
    132 H132       35.6684   28.4953    2.8092 H         1 UNK         0.3459 
    133 H133       34.6409   29.9016    2.9587 H         1 UNK         0.3459 
    134 H134       32.8058   27.6056    6.4196 H         1 UNK         0.0616 
    135 H135       31.5091   28.7630    6.3915 H         1 UNK         0.0616 
    136 H136       31.4593   25.3102    6.7562 H         1 UNK         0.0634 
    137 H137       32.6364   25.2620    5.4604 H         1 UNK         0.0634 
@<TRIPOS>BOND
     1    1    2 1    
     2    1   72 1    
     3    1   73 1    
     4    1   74 1    
     5    2    3 2    
     6    2    4 am   BACKBONE|DICT|INTERRES
     7    4    5 1    
     8    4   75 1    
     9    5    6 1    
    10    5   35 1    
    11    5   76 1    
    12    6    7 1    
    13    6   77 1    
    14    6   78 1    
    15    7    8 1    
    16    8    9 1    
    17    8   79 1    
    18    8   80 1    
    19    9   10 ar   
    20    9   14 ar   
    21   10   11 ar   
    22   10   81 1    
    23   11   12 ar   
    24   11   71 1    
    25   12   13 ar   
    26   12   82 1    
    27   13   14 ar   
    28   13   15 1    
    29   14   83 1    
    30   15   16 1    
    31   15   84 1    
    32   15   85 1    
    33   16   17 1    
    34   17   18 1    
    35   17   86 1    
    36   17   87 1    
    37   18   19 1    
    38   18   37 1    
    39   18   88 1    
    40   19   20 am   BACKBONE|DICT|INTERRES
    41   19   89 1    
    42   20   21 2    
    43   20   22 1    
    44   22   23 1    
    45   22   24 1    
    46   22   90 1    
    47   23   91 1    
    48   23   92 1    
    49   23   93 1    
    50   24   25 am   BACKBONE|DICT|INTERRES
    51   24   94 1    
    52   25   26 2    
    53   25   27 1    
    54   27   28 1    
    55   27   29 1    
    56   27   95 1    
    57   28   96 1    
    58   28   97 1    
    59   28   98 1    
    60   29   30 am   BACKBONE|DICT|INTERRES
    61   29   99 1    
    62   30   31 2    
    63   30   32 1    
    64   32   33 1    
    65   32   34 1    
    66   32  100 1    
    67   33  101 1    
    68   33  102 1    
    69   33  103 1    
    70   34   35 am   BACKBONE|DICT|INTERRES
    71   34  104 1    
    72   35   36 2    
    73   37   38 2    
    74   37   39 am   BACKBONE|DICT|INTERRES
    75   39   40 1    
    76   39  105 1    
    77   40   41 1    
    78   40   42 1    
    79   40  106 1    
    80   41  107 1    
    81   41  108 1    
    82   41  109 1    
    83   42   43 2    
    84   42   44 am   BACKBONE|DICT|INTERRES
    85   44   45 1    
    86   44  110 1    
    87   45   46 1    
    88   45   47 1    
    89   45  111 1    
    90   46  112 1    
    91   46  113 1    
    92   46  114 1    
    93   47   48 2    
    94   47   49 am   BACKBONE|DICT|INTERRES
    95   49   50 1    
    96   49  115 1    
    97   50   51 1    
    98   50   52 1    
    99   50  116 1    
   100   51  117 1    
   101   51  118 1    
   102   51  119 1    
   103   52   53 2    
   104   52   54 am   BACKBONE|DICT|INTERRES
   105   54   55 1    
   106   54  120 1    
   107   55   56 1    
   108   55   57 1    
   109   55  121 1    
   110   56  122 1    
   111   56  123 1    
   112   56  124 1    
   113   57   58 2    
   114   57   59 am   BACKBONE|DICT|INTERRES
   115   59   60 1    
   116   59  125 1    
   117   60   61 1    
   118   60   62 1    
   119   60  126 1    
   120   61  127 1    
   121   61  128 1    
   122   61  129 1    
   123   62   63 2    
   124   62   64 am   BACKBONE|DICT|INTERRES
   125   64   65 1    
   126   64  130 1    
   127   65   66 1    
   128   65   69 1    
   129   65  131 1    
   130   66   67 am   BACKBONE|DICT|INTERRES
   131   66   68 2    
   132   67  132 1    
   133   67  133 1    
   134   69   70 1    
   135   69  134 1    
   136   69  135 1    
   137   70   71 1    
   138   71  136 1    
   139   71  137 1    
@<TRIPOS>SUBSTRUCTURE
     1 UNK         1 GROUP             0       ****    0 ROOT    
