@<TRIPOS>MOLECULE
3R136
137   139    1
SMALL
USER_CHARGES


@<TRIPOS>ATOM
      1 CA         31.4730   21.3079    3.0974 C.3       0 UNK        -0.1979 
      2 C          30.9907   20.9082    1.7117 C.2       0 UNK         0.4864 
      3 O          30.9470   19.7176    1.3959 O.2       0 UNK        -0.5359 
      4 N          30.6457   21.8999    0.8814 N.am      1 UNK        -0.4318 
      5 CA         30.1145   21.7205   -0.4723 C.3       1 UNK         0.0824 
      6 C6         30.5301   22.8966   -1.3999 C.3       12 UNK        -0.0944 
      7 S7         29.5829   24.4447   -1.1846 S.3       12 UNK        -0.2672 
      8 C8         30.7631   25.5055   -0.2883 C.3       12 UNK         0.0333 
      9 C9         30.8689   25.2024    1.2039 C.ar      12 UNK        -0.0807 
     10 C10        32.1045   25.3363    1.8411 C.ar      12 UNK        -0.0894 
     11 C11        32.2231   25.1303    3.2177 C.ar      12 UNK        -0.0804 
     12 C12        31.0923   24.7937    3.9648 C.ar      12 UNK        -0.0824 
     13 C13        29.8470   24.6525    3.3464 C.ar      12 UNK        -0.0762 
     14 C14        29.7468   24.8485    1.9630 C.ar      12 UNK        -0.0782 
     15 C15        28.6380   24.2627    4.1941 C.3       12 UNK         0.0230 
     16 S16        27.0589   24.9875    3.6396 S.3       12 UNK        -0.2608 
     17 C17        27.3052   26.7673    3.9770 C.3       12 UNK        -0.0989 
     18 CA         27.7522   27.5911    2.7354 C.3       5 UNK         0.0716 
     19 N          26.9230   27.2940    1.5627 N.am      5 UNK        -0.4135 
     20 C          27.2597   27.4477    0.2771 C.2       4 UNK         0.5031 
     21 O          28.2962   28.0049   -0.0888 O.2       4 UNK        -0.5229 
     22 CA         26.2793   26.8646   -0.7620 C.3       4 UNK         0.0329 
     23 CB         26.8086   26.9632   -2.2047 C.3       4 UNK        -0.2001 
     24 N          25.9376   25.4665   -0.4678 N.am      4 UNK        -0.4303 
     25 C          25.0235   25.0744    0.4299 C.2       3 UNK         0.5044 
     26 O          24.3777   25.8768    1.1069 O.2       3 UNK        -0.5152 
     27 CA         24.8115   23.5671    0.6780 C.3       3 UNK         0.0319 
     28 CB         23.3246   23.1795    0.5380 C.3       3 UNK        -0.2001 
     29 N          25.6630   22.6476   -0.0902 N.am      3 UNK        -0.4354 
     30 C          25.6623   22.4020   -1.4070 C.2       2 UNK         0.4964 
     31 O          25.0094   23.0517   -2.2246 O.2       2 UNK        -0.5047 
     32 CA         26.5426   21.2230   -1.8778 C.3       2 UNK         0.0288 
     33 CB         26.3326   20.8891   -3.3672 C.3       2 UNK        -0.2113 
     34 N          27.9730   21.4425   -1.6456 N.am      2 UNK        -0.4145 
     35 C          28.5933   21.4296   -0.4567 C.2       1 UNK         0.5006 
     36 O          28.0028   21.2162    0.6072 O.2       1 UNK        -0.5103 
     37 C          27.8168   29.1064    3.0283 C.2       5 UNK         0.5055 
     38 O          27.4702   29.5350    4.1313 O.2       5 UNK        -0.5220 
     39 N          28.2436   29.8928    2.0335 N.am      6 UNK        -0.4450 
     40 CA         28.3581   31.3497    2.0841 C.3       6 UNK         0.0367 
     41 CB         28.6919   31.8681    0.6758 C.3       6 UNK        -0.1929 
     42 C          29.4205   31.8331    3.0839 C.2       6 UNK         0.5070 
     43 O          30.4724   31.2039    3.2283 O.2       6 UNK        -0.5237 
     44 N          29.1644   32.9955    3.6989 N.am      7 UNK        -0.4739 
     45 CA         30.0899   33.6762    4.6135 C.3       7 UNK         0.0276 
     46 CB         29.3968   34.9026    5.2274 C.3       7 UNK        -0.1927 
     47 C          31.4159   34.0827    3.9464 C.2       7 UNK         0.5013 
     48 O          32.4503   34.0861    4.6124 O.2       7 UNK        -0.5193 
     49 N          31.3729   34.3492    2.6326 N.am      8 UNK        -0.4253 
     50 CA         32.5303   34.6323    1.7790 C.3       8 UNK         0.0242 
     51 CB         32.0364   35.0144    0.3741 C.3       8 UNK        -0.2000 
     52 C          33.5486   33.4784    1.6935 C.2       8 UNK         0.4948 
     53 O          34.7254   33.7427    1.4457 O.2       8 UNK        -0.5275 
     54 N          33.0990   32.2335    1.9171 N.am      9 UNK        -0.4246 
     55 CA         33.9618   31.0517    2.0015 C.3       9 UNK         0.0261 
     56 CB         33.1426   29.8017    1.6303 C.3       9 UNK        -0.1959 
     57 C          34.6048   30.8795    3.3917 C.2       9 UNK         0.5033 
     58 O          35.4990   30.0448    3.5272 O.2       9 UNK        -0.5390 
     59 N          34.1308   31.6395    4.3943 N.am      10 UNK        -0.4215 
     60 CA         34.4667   31.5597    5.8229 C.3       10 UNK         0.0240 
     61 CB         35.9613   31.8573    6.0715 C.3       10 UNK        -0.1982 
     62 C          33.9922   30.2555    6.4988 C.2       10 UNK         0.4970 
     63 O          34.5131   29.8965    7.5565 O.2       10 UNK        -0.4916 
     64 N          33.0012   29.5864    5.8980 N.am      11 UNK        -0.4279 
     65 CA         32.4207   28.3185    6.3650 C.3       11 UNK         0.1003 
     66 C          30.9273   28.1194    5.9813 C.2       11 UNK         0.5709 
     67 N          30.2704   29.0646    5.3190 N.am      11 UNK        -0.7358 
     68 O          30.3302   27.1086    6.3422 O.2       11 UNK        -0.4999 
     69 C69        33.3241   27.0876    6.0611 C.3       12 UNK        -0.0954 
     70 S70        33.9224   26.9942    4.3368 S.3       12 UNK        -0.2268 
     71 C71        33.5791   25.2674    3.8880 C.3       12 UNK         0.0203 
     72 H72        30.6241   21.5161    3.7480 H         1 UNK         0.0888 
     73 H73        32.0603   20.5075    3.5469 H         1 UNK         0.0888 
     74 H74        32.1016   22.1963    3.0501 H         1 UNK         0.0888 
     75 H75        30.6709   22.8557    1.2114 H         1 UNK         0.3017 
     76 H76        30.5772   20.8226   -0.8881 H         1 UNK         0.0873 
     77 H77        30.4214   22.5969   -2.4434 H         1 UNK         0.0745 
     78 H78        31.5955   23.1015   -1.2825 H         1 UNK         0.0745 
     79 H79        31.7395   25.4342   -0.7697 H         1 UNK         0.0705 
     80 H80        30.4483   26.5427   -0.4007 H         1 UNK         0.0705 
     81 H81        32.9782   25.6176    1.2687 H         1 UNK         0.1334 
     82 H82        31.1833   24.6425    5.0319 H         1 UNK         0.1417 
     83 H83        28.7858   24.7486    1.4782 H         1 UNK         0.1562 
     84 H84        28.7978   24.5407    5.2374 H         1 UNK         0.0748 
     85 H85        28.5429   23.1764    4.1745 H         1 UNK         0.0748 
     86 H86        28.0268   26.8802    4.7881 H         1 UNK         0.0940 
     87 H87        26.3583   27.1490    4.3639 H         1 UNK         0.0940 
     88 H88        28.7765   27.2989    2.5011 H         1 UNK         0.0703 
     89 H89        26.0327   26.8467    1.7545 H         1 UNK         0.3081 
     90 H90        25.3701   27.4674   -0.7103 H         1 UNK         0.0719 
     91 H91        27.0056   28.0006   -2.4779 H         1 UNK         0.0809 
     92 H92        27.7392   26.4118   -2.3352 H         1 UNK         0.0809 
     93 H93        26.0847   26.5729   -2.9203 H         1 UNK         0.0809 
     94 H94        26.4449   24.7559   -0.9754 H         1 UNK         0.2990 
     95 H95        25.0892   23.4061    1.7206 H         1 UNK         0.0690 
     96 H96        23.1632   22.1294    0.7820 H         1 UNK         0.0788 
     97 H97        22.9538   23.3510   -0.4730 H         1 UNK         0.0788 
     98 H98        22.7006   23.7655    1.2142 H         1 UNK         0.0788 
     99 H99        26.3205   22.1008    0.4622 H         1 UNK         0.2993 
    100 H100       26.2346   20.3490   -1.2994 H         1 UNK         0.0949 
    101 H101       26.6398   21.7124   -4.0137 H         1 UNK         0.0767 
    102 H102       26.8974   20.0035   -3.6593 H         1 UNK         0.0767 
    103 H103       25.2820   20.6834   -3.5775 H         1 UNK         0.0767 
    104 H104       28.5200   21.6689   -2.4634 H         1 UNK         0.3013 
    105 H105       28.5042   29.4356    1.1633 H         1 UNK         0.3121 
    106 H106       27.3865   31.7472    2.3847 H         1 UNK         0.0774 
    107 H107       29.6540   31.4906    0.3260 H         1 UNK         0.0815 
    108 H108       27.9330   31.5688   -0.0475 H         1 UNK         0.0815 
    109 H109       28.7417   32.9575    0.6571 H         1 UNK         0.0815 
    110 H110       28.2815   33.4552    3.5244 H         1 UNK         0.2987 
    111 H111       30.3328   32.9795    5.4190 H         1 UNK         0.0949 
    112 H112       28.5016   34.6175    5.7804 H         1 UNK         0.0806 
    113 H113       30.0583   35.4137    5.9286 H         1 UNK         0.0806 
    114 H114       29.1061   35.6278    4.4663 H         1 UNK         0.0806 
    115 H115       30.4717   34.3200    2.1790 H         1 UNK         0.3010 
    116 H116       33.0511   35.4916    2.2068 H         1 UNK         0.0829 
    117 H117       31.4830   34.1999   -0.0954 H         1 UNK         0.0813 
    118 H118       32.8740   35.2588   -0.2810 H         1 UNK         0.0813 
    119 H119       31.3871   35.8896    0.4046 H         1 UNK         0.0813 
    120 H120       32.1196   32.0896    2.1366 H         1 UNK         0.3038 
    121 H121       34.7721   31.1500    1.2759 H         1 UNK         0.0769 
    122 H122       32.6820   29.9027    0.6476 H         1 UNK         0.0811 
    123 H123       32.3513   29.6008    2.3529 H         1 UNK         0.0811 
    124 H124       33.7783   28.9155    1.5999 H         1 UNK         0.0811 
    125 H125       33.4377   32.3460    4.1698 H         1 UNK         0.3204 
    126 H126       33.8973   32.3580    6.3010 H         1 UNK         0.0748 
    127 H127       36.6023   31.0541    5.7072 H         1 UNK         0.0771 
    128 H128       36.2682   32.7815    5.5818 H         1 UNK         0.0771 
    129 H129       36.1648   31.9740    7.1367 H         1 UNK         0.0771 
    130 H130       32.6488   29.9306    5.0186 H         1 UNK         0.2980 
    131 H131       32.3698   28.3940    7.4528 H         1 UNK         0.0545 
    132 H132       30.7107   29.9033    4.9739 H         1 UNK         0.3459 
    133 H133       29.2851   28.9376    5.1405 H         1 UNK         0.3459 
    134 H134       32.8208   26.1598    6.3365 H         1 UNK         0.0616 
    135 H135       34.2087   27.1315    6.6977 H         1 UNK         0.0616 
    136 H136       34.3582   24.9274    3.2041 H         1 UNK         0.0634 
    137 H137       33.6490   24.6228    4.7653 H         1 UNK         0.0634 
@<TRIPOS>BOND
     1    1    2 1    
     2    1   72 1    
     3    1   73 1    
     4    1   74 1    
     5    2    3 2    
     6    2    4 am   BACKBONE|DICT|INTERRES
     7    4    5 1    
     8    4   75 1    
     9    5    6 1    
    10    5   35 1    
    11    5   76 1    
    12    6    7 1    
    13    6   77 1    
    14    6   78 1    
    15    7    8 1    
    16    8    9 1    
    17    8   79 1    
    18    8   80 1    
    19    9   10 ar   
    20    9   14 ar   
    21   10   11 ar   
    22   10   81 1    
    23   11   12 ar   
    24   11   71 1    
    25   12   13 ar   
    26   12   82 1    
    27   13   14 ar   
    28   13   15 1    
    29   14   83 1    
    30   15   16 1    
    31   15   84 1    
    32   15   85 1    
    33   16   17 1    
    34   17   18 1    
    35   17   86 1    
    36   17   87 1    
    37   18   19 1    
    38   18   37 1    
    39   18   88 1    
    40   19   20 am   BACKBONE|DICT|INTERRES
    41   19   89 1    
    42   20   21 2    
    43   20   22 1    
    44   22   23 1    
    45   22   24 1    
    46   22   90 1    
    47   23   91 1    
    48   23   92 1    
    49   23   93 1    
    50   24   25 am   BACKBONE|DICT|INTERRES
    51   24   94 1    
    52   25   26 2    
    53   25   27 1    
    54   27   28 1    
    55   27   29 1    
    56   27   95 1    
    57   28   96 1    
    58   28   97 1    
    59   28   98 1    
    60   29   30 am   BACKBONE|DICT|INTERRES
    61   29   99 1    
    62   30   31 2    
    63   30   32 1    
    64   32   33 1    
    65   32   34 1    
    66   32  100 1    
    67   33  101 1    
    68   33  102 1    
    69   33  103 1    
    70   34   35 am   BACKBONE|DICT|INTERRES
    71   34  104 1    
    72   35   36 2    
    73   37   38 2    
    74   37   39 am   BACKBONE|DICT|INTERRES
    75   39   40 1    
    76   39  105 1    
    77   40   41 1    
    78   40   42 1    
    79   40  106 1    
    80   41  107 1    
    81   41  108 1    
    82   41  109 1    
    83   42   43 2    
    84   42   44 am   BACKBONE|DICT|INTERRES
    85   44   45 1    
    86   44  110 1    
    87   45   46 1    
    88   45   47 1    
    89   45  111 1    
    90   46  112 1    
    91   46  113 1    
    92   46  114 1    
    93   47   48 2    
    94   47   49 am   BACKBONE|DICT|INTERRES
    95   49   50 1    
    96   49  115 1    
    97   50   51 1    
    98   50   52 1    
    99   50  116 1    
   100   51  117 1    
   101   51  118 1    
   102   51  119 1    
   103   52   53 2    
   104   52   54 am   BACKBONE|DICT|INTERRES
   105   54   55 1    
   106   54  120 1    
   107   55   56 1    
   108   55   57 1    
   109   55  121 1    
   110   56  122 1    
   111   56  123 1    
   112   56  124 1    
   113   57   58 2    
   114   57   59 am   BACKBONE|DICT|INTERRES
   115   59   60 1    
   116   59  125 1    
   117   60   61 1    
   118   60   62 1    
   119   60  126 1    
   120   61  127 1    
   121   61  128 1    
   122   61  129 1    
   123   62   63 2    
   124   62   64 am   BACKBONE|DICT|INTERRES
   125   64   65 1    
   126   64  130 1    
   127   65   66 1    
   128   65   69 1    
   129   65  131 1    
   130   66   67 am   BACKBONE|DICT|INTERRES
   131   66   68 2    
   132   67  132 1    
   133   67  133 1    
   134   69   70 1    
   135   69  134 1    
   136   69  135 1    
   137   70   71 1    
   138   71  136 1    
   139   71  137 1    
@<TRIPOS>SUBSTRUCTURE
     1 UNK         1 GROUP             0       ****    0 ROOT    
