@<TRIPOS>MOLECULE
3R136
137   139    1
SMALL
USER_CHARGES


@<TRIPOS>ATOM
      1 CA         24.8911   24.0344    3.0707 C.3       0 UNK        -0.1979 
      2 C          25.3585   22.6915    2.5330 C.2       0 UNK         0.4864 
      3 O          24.8690   21.6510    2.9766 O.2       0 UNK        -0.5359 
      4 N          26.2900   22.7120    1.5730 N.am      1 UNK        -0.4318 
      5 CA         26.7281   21.5393    0.8107 C.3       1 UNK         0.0824 
      6 C6         28.2319   21.6188    0.4277 C.3       12 UNK        -0.0944 
      7 S7         29.3279   21.8476    1.8714 S.3       12 UNK        -0.2672 
      8 C8         30.1666   23.4102    1.4478 C.3       12 UNK         0.0333 
      9 C9         30.3169   24.3305    2.6490 C.ar      12 UNK        -0.0807 
     10 C10        31.5810   24.7736    3.0481 C.ar      12 UNK        -0.0894 
     11 C11        31.7124   25.6906    4.0953 C.ar      12 UNK        -0.0804 
     12 C12        30.5702   26.1630    4.7474 C.ar      12 UNK        -0.0824 
     13 C13        29.3014   25.7230    4.3588 C.ar      12 UNK        -0.0762 
     14 C14        29.1826   24.7966    3.3194 C.ar      12 UNK        -0.0782 
     15 C15        28.0583   26.2677    5.0428 C.3       12 UNK         0.0230 
     16 S16        27.5814   27.8858    4.3589 S.3       12 UNK        -0.2608 
     17 C17        26.9743   27.4509    2.6889 C.3       12 UNK        -0.0989 
     18 CA         28.0133   27.5573    1.5374 C.3       5 UNK         0.0716 
     19 N          27.4008   27.3253    0.2344 N.am      5 UNK        -0.4135 
     20 C          27.1123   26.1376   -0.3069 C.2       4 UNK         0.5031 
     21 O          27.2571   25.0660    0.2866 O.2       4 UNK        -0.5229 
     22 CA         26.5863   26.1344   -1.7547 C.3       4 UNK         0.0329 
     23 CB         26.9795   27.4033   -2.5517 C.3       4 UNK        -0.2001 
     24 N          27.0719   24.9275   -2.4264 N.am      4 UNK        -0.4303 
     25 C          26.6454   24.4495   -3.6035 C.2       3 UNK         0.5044 
     26 O          25.7357   24.9545   -4.2625 O.2       3 UNK        -0.5152 
     27 CA         27.3657   23.2015   -4.1460 C.3       3 UNK         0.0319 
     28 CB         28.8991   23.3456   -4.1009 C.3       3 UNK        -0.2001 
     29 N          26.9653   21.9999   -3.4174 N.am      3 UNK        -0.4354 
     30 C          25.8048   21.3471   -3.5817 C.2       2 UNK         0.4964 
     31 O          24.9795   21.6166   -4.4549 O.2       2 UNK        -0.5047 
     32 CA         25.5085   20.1982   -2.5952 C.3       2 UNK         0.0288 
     33 CB         25.9582   18.8509   -3.1840 C.3       2 UNK        -0.2113 
     34 N          26.1309   20.3856   -1.2780 N.am      2 UNK        -0.4145 
     35 C          25.8406   21.3976   -0.4463 C.2       1 UNK         0.5006 
     36 O          24.9427   22.2146   -0.6748 O.2       1 UNK        -0.5103 
     37 C          28.7184   28.9214    1.4578 C.2       5 UNK         0.5055 
     38 O          28.2442   29.8069    0.7395 O.2       5 UNK        -0.5220 
     39 N          29.8290   29.0631    2.1904 N.am      6 UNK        -0.4450 
     40 CA         30.6123   30.2940    2.2943 C.3       6 UNK         0.0367 
     41 CB         31.7172   30.3084    1.2223 C.3       6 UNK        -0.1929 
     42 C          31.1550   30.4799    3.7207 C.2       6 UNK         0.5070 
     43 O          32.2607   31.0051    3.8920 O.2       6 UNK        -0.5237 
     44 N          30.3672   30.0578    4.7220 N.am      7 UNK        -0.4739 
     45 CA         30.6601   30.1982    6.1510 C.3       7 UNK         0.0276 
     46 CB         29.5313   29.5604    6.9775 C.3       7 UNK        -0.1927 
     47 C          30.8551   31.6717    6.5459 C.2       7 UNK         0.5013 
     48 O          29.9201   32.4629    6.4104 O.2       7 UNK        -0.5193 
     49 N          32.0805   32.0053    6.9707 N.am      8 UNK        -0.4253 
     50 CA         32.6042   33.3372    7.3018 C.3       8 UNK         0.0242 
     51 CB         31.7864   34.0072    8.4263 C.3       8 UNK        -0.2000 
     52 C          32.7955   34.2720    6.0890 C.2       8 UNK         0.4948 
     53 O          33.2678   35.3941    6.2786 O.2       8 UNK        -0.5275 
     54 N          32.4657   33.8084    4.8757 N.am      9 UNK        -0.4246 
     55 CA         32.6831   34.5245    3.6187 C.3       9 UNK         0.0261 
     56 CB         31.4896   34.2989    2.6760 C.3       9 UNK        -0.1959 
     57 C          33.9958   34.0806    2.9584 C.2       9 UNK         0.5033 
     58 O          34.7440   34.9362    2.4828 O.2       9 UNK        -0.5390 
     59 N          34.2607   32.7665    2.9525 N.am      10 UNK        -0.4215 
     60 CA         35.4828   32.1706    2.4047 C.3       10 UNK         0.0240 
     61 CB         35.2673   31.7881    0.9291 C.3       10 UNK        -0.1982 
     62 C          35.9902   30.9639    3.2105 C.2       10 UNK         0.4970 
     63 O          37.1580   30.6072    3.0450 O.2       10 UNK        -0.4916 
     64 N          35.1488   30.3529    4.0540 N.am      11 UNK        -0.4279 
     65 CA         35.4951   29.1752    4.8618 C.3       11 UNK         0.1003 
     66 C          34.8052   29.1932    6.2520 C.2       11 UNK         0.5709 
     67 N          35.0071   28.1688    7.0694 N.am      11 UNK        -0.7358 
     68 O          34.1086   30.1381    6.6156 O.2       11 UNK        -0.4999 
     69 C69        35.3102   27.8510    4.0674 C.3       12 UNK        -0.0954 
     70 S70        33.6101   27.5757    3.4611 S.3       12 UNK        -0.2268 
     71 C71        33.0892   26.1839    4.5055 C.3       12 UNK         0.0203 
     72 H72        23.8412   23.9832    3.3584 H         1 UNK         0.0888 
     73 H73        25.4714   24.3142    3.9482 H         1 UNK         0.0888 
     74 H74        24.9889   24.8140    2.3161 H         1 UNK         0.0888 
     75 H75        26.6168   23.6026    1.2018 H         1 UNK         0.3017 
     76 H76        26.5819   20.6397    1.4124 H         1 UNK         0.0873 
     77 H77        28.5534   20.6982   -0.0619 H         1 UNK         0.0745 
     78 H78        28.3964   22.4145   -0.3002 H         1 UNK         0.0745 
     79 H79        29.6150   23.9565    0.6837 H         1 UNK         0.0705 
     80 H80        31.1376   23.1744    1.0098 H         1 UNK         0.0705 
     81 H81        32.4643   24.4265    2.5291 H         1 UNK         0.1334 
     82 H82        30.6698   26.8837    5.5469 H         1 UNK         0.1417 
     83 H83        28.2044   24.4639    3.0005 H         1 UNK         0.1562 
     84 H84        28.2483   26.3777    6.1113 H         1 UNK         0.0748 
     85 H85        27.2264   25.5687    4.9561 H         1 UNK         0.0748 
     86 H86        26.1235   28.1008    2.4760 H         1 UNK         0.0940 
     87 H87        26.5688   26.4414    2.7201 H         1 UNK         0.0940 
     88 H88        28.7910   26.8064    1.6719 H         1 UNK         0.0703 
     89 H89        27.2905   28.1700   -0.3133 H         1 UNK         0.3081 
     90 H90        25.4978   26.0757   -1.6961 H         1 UNK         0.0719 
     91 H91        26.6164   27.3656   -3.5783 H         1 UNK         0.0809 
     92 H92        28.0618   27.5341   -2.5925 H         1 UNK         0.0809 
     93 H93        26.5487   28.3040   -2.1128 H         1 UNK         0.0809 
     94 H94        27.7749   24.4192   -1.9081 H         1 UNK         0.2990 
     95 H95        27.0780   23.0863   -5.1935 H         1 UNK         0.0690 
     96 H96        29.2874   23.3646   -3.0821 H         1 UNK         0.0788 
     97 H97        29.2187   24.2663   -4.5912 H         1 UNK         0.0788 
     98 H98        29.3842   22.5203   -4.6226 H         1 UNK         0.0788 
     99 H99        27.5830   21.6867   -2.6847 H         1 UNK         0.2993 
    100 H100       24.4261   20.1662   -2.4514 H         1 UNK         0.0949 
    101 H101       25.6780   18.0205   -2.5355 H         1 UNK         0.0767 
    102 H102       25.4901   18.6739   -4.1536 H         1 UNK         0.0767 
    103 H103       27.0382   18.8137   -3.3322 H         1 UNK         0.0767 
    104 H104       26.8551   19.7293   -1.0229 H         1 UNK         0.3013 
    105 H105       30.1470   28.2881    2.7587 H         1 UNK         0.3121 
    106 H106       29.9578   31.1499    2.1162 H         1 UNK         0.0774 
    107 H107       32.2421   31.2632    1.2182 H         1 UNK         0.0815 
    108 H108       32.4548   29.5242    1.3943 H         1 UNK         0.0815 
    109 H109       31.3045   30.1680    0.2234 H         1 UNK         0.0815 
    110 H110       29.4608   29.6752    4.4893 H         1 UNK         0.2987 
    111 H111       31.5775   29.6439    6.3544 H         1 UNK         0.0949 
    112 H112       28.5643   30.0161    6.7606 H         1 UNK         0.0806 
    113 H113       29.4487   28.4921    6.7855 H         1 UNK         0.0806 
    114 H114       29.7153   29.6801    8.0461 H         1 UNK         0.0806 
    115 H115       32.7907   31.2715    6.9589 H         1 UNK         0.3010 
    116 H116       33.6073   33.1592    7.6927 H         1 UNK         0.0829 
    117 H117       31.6760   33.3461    9.2857 H         1 UNK         0.0813 
    118 H118       32.2788   34.9144    8.7785 H         1 UNK         0.0813 
    119 H119       30.7894   34.2937    8.0909 H         1 UNK         0.0813 
    120 H120       32.1165   32.8599    4.8057 H         1 UNK         0.3038 
    121 H121       32.7519   35.5973    3.8117 H         1 UNK         0.0769 
    122 H122       31.6190   34.8552    1.7466 H         1 UNK         0.0811 
    123 H123       30.5585   34.6386    3.1299 H         1 UNK         0.0811 
    124 H124       31.3684   33.2499    2.4111 H         1 UNK         0.0811 
    125 H125       33.5636   32.1287    3.3307 H         1 UNK         0.3204 
    126 H126       36.2843   32.9113    2.4480 H         1 UNK         0.0748 
    127 H127       36.1999   31.4489    0.4763 H         1 UNK         0.0771 
    128 H128       34.5462   30.9782    0.8234 H         1 UNK         0.0771 
    129 H129       34.9137   32.6363    0.3427 H         1 UNK         0.0771 
    130 H130       34.1887   30.6613    4.1585 H         1 UNK         0.2980 
    131 H131       36.5550   29.2543    5.1104 H         1 UNK         0.0545 
    132 H132       35.5962   27.3955    6.8055 H         1 UNK         0.3459 
    133 H133       34.5760   28.1814    7.9799 H         1 UNK         0.3459 
    134 H134       35.6405   26.9938    4.6553 H         1 UNK         0.0616 
    135 H135       35.9645   27.8634    3.1947 H         1 UNK         0.0616 
    136 H136       33.8128   25.3717    4.4208 H         1 UNK         0.0634 
    137 H137       33.0874   26.4948    5.5512 H         1 UNK         0.0634 
@<TRIPOS>BOND
     1    1    2 1    
     2    1   72 1    
     3    1   73 1    
     4    1   74 1    
     5    2    3 2    
     6    2    4 am   BACKBONE|DICT|INTERRES
     7    4    5 1    
     8    4   75 1    
     9    5    6 1    
    10    5   35 1    
    11    5   76 1    
    12    6    7 1    
    13    6   77 1    
    14    6   78 1    
    15    7    8 1    
    16    8    9 1    
    17    8   79 1    
    18    8   80 1    
    19    9   10 ar   
    20    9   14 ar   
    21   10   11 ar   
    22   10   81 1    
    23   11   12 ar   
    24   11   71 1    
    25   12   13 ar   
    26   12   82 1    
    27   13   14 ar   
    28   13   15 1    
    29   14   83 1    
    30   15   16 1    
    31   15   84 1    
    32   15   85 1    
    33   16   17 1    
    34   17   18 1    
    35   17   86 1    
    36   17   87 1    
    37   18   19 1    
    38   18   37 1    
    39   18   88 1    
    40   19   20 am   BACKBONE|DICT|INTERRES
    41   19   89 1    
    42   20   21 2    
    43   20   22 1    
    44   22   23 1    
    45   22   24 1    
    46   22   90 1    
    47   23   91 1    
    48   23   92 1    
    49   23   93 1    
    50   24   25 am   BACKBONE|DICT|INTERRES
    51   24   94 1    
    52   25   26 2    
    53   25   27 1    
    54   27   28 1    
    55   27   29 1    
    56   27   95 1    
    57   28   96 1    
    58   28   97 1    
    59   28   98 1    
    60   29   30 am   BACKBONE|DICT|INTERRES
    61   29   99 1    
    62   30   31 2    
    63   30   32 1    
    64   32   33 1    
    65   32   34 1    
    66   32  100 1    
    67   33  101 1    
    68   33  102 1    
    69   33  103 1    
    70   34   35 am   BACKBONE|DICT|INTERRES
    71   34  104 1    
    72   35   36 2    
    73   37   38 2    
    74   37   39 am   BACKBONE|DICT|INTERRES
    75   39   40 1    
    76   39  105 1    
    77   40   41 1    
    78   40   42 1    
    79   40  106 1    
    80   41  107 1    
    81   41  108 1    
    82   41  109 1    
    83   42   43 2    
    84   42   44 am   BACKBONE|DICT|INTERRES
    85   44   45 1    
    86   44  110 1    
    87   45   46 1    
    88   45   47 1    
    89   45  111 1    
    90   46  112 1    
    91   46  113 1    
    92   46  114 1    
    93   47   48 2    
    94   47   49 am   BACKBONE|DICT|INTERRES
    95   49   50 1    
    96   49  115 1    
    97   50   51 1    
    98   50   52 1    
    99   50  116 1    
   100   51  117 1    
   101   51  118 1    
   102   51  119 1    
   103   52   53 2    
   104   52   54 am   BACKBONE|DICT|INTERRES
   105   54   55 1    
   106   54  120 1    
   107   55   56 1    
   108   55   57 1    
   109   55  121 1    
   110   56  122 1    
   111   56  123 1    
   112   56  124 1    
   113   57   58 2    
   114   57   59 am   BACKBONE|DICT|INTERRES
   115   59   60 1    
   116   59  125 1    
   117   60   61 1    
   118   60   62 1    
   119   60  126 1    
   120   61  127 1    
   121   61  128 1    
   122   61  129 1    
   123   62   63 2    
   124   62   64 am   BACKBONE|DICT|INTERRES
   125   64   65 1    
   126   64  130 1    
   127   65   66 1    
   128   65   69 1    
   129   65  131 1    
   130   66   67 am   BACKBONE|DICT|INTERRES
   131   66   68 2    
   132   67  132 1    
   133   67  133 1    
   134   69   70 1    
   135   69  134 1    
   136   69  135 1    
   137   70   71 1    
   138   71  136 1    
   139   71  137 1    
@<TRIPOS>SUBSTRUCTURE
     1 UNK         1 GROUP             0       ****    0 ROOT    
