@<TRIPOS>MOLECULE
3R136
137   139    1
SMALL
USER_CHARGES


@<TRIPOS>ATOM
      1 CA         29.5569   22.2464    3.8733 C.3       0 UNK        -0.1979 
      2 C          28.6530   22.0011    2.6764 C.2       0 UNK         0.4864 
      3 O          27.4743   22.3555    2.7159 O.2       0 UNK        -0.5359 
      4 N          29.2138   21.3912    1.6246 N.am      1 UNK        -0.4318 
      5 CA         28.5266   20.8076    0.4658 C.3       1 UNK         0.0824 
      6 C6         29.5346   20.1577   -0.5177 C.3       12 UNK        -0.0944 
      7 S7         30.6442   21.3304   -1.3810 S.3       12 UNK        -0.2672 
      8 C8         32.1181   21.4018   -0.3054 C.3       12 UNK         0.0333 
      9 C9         32.3100   22.7624    0.3636 C.ar      12 UNK        -0.0807 
     10 C10        32.6444   22.8397    1.7206 C.ar      12 UNK        -0.0894 
     11 C11        32.9144   24.0755    2.3200 C.ar      12 UNK        -0.0804 
     12 C12        32.8297   25.2451    1.5562 C.ar      12 UNK        -0.0824 
     13 C13        32.5106   25.1831    0.1967 C.ar      12 UNK        -0.0762 
     14 C14        32.2487   23.9411   -0.3900 C.ar      12 UNK        -0.0782 
     15 C15        32.5340   26.4382   -0.6663 C.3       12 UNK         0.0230 
     16 S16        30.8675   27.0821   -1.0129 S.3       12 UNK        -0.2608 
     17 C17        30.7124   28.4411    0.1943 C.3       12 UNK        -0.0989 
     18 CA         29.2983   28.4948    0.8337 C.3       5 UNK         0.0716 
     19 N          28.9530   27.2837    1.5818 N.am      5 UNK        -0.4135 
     20 C          29.5076   26.9038    2.7424 C.2       4 UNK         0.5031 
     21 O          30.5189   27.4343    3.2014 O.2       4 UNK        -0.5229 
     22 CA         28.8204   25.7879    3.5556 C.3       4 UNK         0.0329 
     23 CB         28.6537   26.1942    5.0353 C.3       4 UNK        -0.2001 
     24 N          27.5429   25.3020    3.0150 N.am      4 UNK        -0.4303 
     25 C          26.4158   25.9983    2.8047 C.2       3 UNK         0.5044 
     26 O          26.2772   27.1910    3.0829 O.2       3 UNK        -0.5152 
     27 CA         25.3067   25.2383    2.0506 C.3       3 UNK         0.0319 
     28 CB         24.1355   26.1505    1.6294 C.3       3 UNK        -0.2001 
     29 N          25.8358   24.5068    0.8880 N.am      3 UNK        -0.4354 
     30 C          26.5612   25.0153   -0.1218 C.2       2 UNK         0.4964 
     31 O          26.8622   26.2064   -0.2178 O.2       2 UNK        -0.5047 
     32 CA         27.0874   24.0062   -1.1522 C.3       2 UNK         0.0288 
     33 CB         27.9404   24.6621   -2.2538 C.3       2 UNK        -0.2113 
     34 N          27.8958   22.9928   -0.4748 N.am      2 UNK        -0.4145 
     35 C          27.5162   21.7285   -0.2545 C.2       1 UNK         0.5006 
     36 O          26.4151   21.2794   -0.5790 O.2       1 UNK        -0.5103 
     37 C          29.0825   29.7420    1.7229 C.2       5 UNK         0.5055 
     38 O          29.9694   30.5946    1.8154 O.2       5 UNK        -0.5220 
     39 N          27.9364   29.7948    2.4232 N.am      6 UNK        -0.4450 
     40 CA         27.6111   30.7775    3.4668 C.3       6 UNK         0.0367 
     41 CB         26.2192   30.4712    4.0408 C.3       6 UNK        -0.1929 
     42 C          27.7008   32.2524    3.0405 C.2       6 UNK         0.5070 
     43 O          28.0260   33.1019    3.8695 O.2       6 UNK        -0.5237 
     44 N          27.4291   32.5282    1.7598 N.am      7 UNK        -0.4739 
     45 CA         27.5188   33.8630    1.1663 C.3       7 UNK         0.0276 
     46 CB         26.6491   33.8968   -0.1019 C.3       7 UNK        -0.1927 
     47 C          28.9587   34.3035    0.8384 C.2       7 UNK         0.5013 
     48 O          29.1634   35.4935    0.5929 O.2       7 UNK        -0.5193 
     49 N          29.9126   33.3609    0.7997 N.am      8 UNK        -0.4253 
     50 CA         31.2837   33.5931    0.3381 C.3       8 UNK         0.0242 
     51 CB         31.5412   32.7439   -0.9184 C.3       8 UNK        -0.2000 
     52 C          32.3447   33.2918    1.4056 C.2       8 UNK         0.4948 
     53 O          33.3210   34.0389    1.4887 O.2       8 UNK        -0.5275 
     54 N          32.1718   32.2070    2.1731 N.am      9 UNK        -0.4246 
     55 CA         33.1899   31.6923    3.0940 C.3       9 UNK         0.0261 
     56 CB         34.0426   30.6303    2.3753 C.3       9 UNK        -0.1959 
     57 C          32.6232   31.1189    4.3987 C.2       9 UNK         0.5033 
     58 O          33.2919   31.2431    5.4261 O.2       9 UNK        -0.5390 
     59 N          31.4527   30.4602    4.3487 N.am      10 UNK        -0.4215 
     60 CA         30.8148   29.7380    5.4676 C.3       10 UNK         0.0240 
     61 CB         30.2658   30.7378    6.5088 C.3       10 UNK        -0.1982 
     62 C          31.7258   28.6607    6.1049 C.2       10 UNK         0.4970 
     63 O          31.6789   28.4522    7.3186 O.2       10 UNK        -0.4916 
     64 N          32.5651   28.0345    5.2693 N.am      11 UNK        -0.4279 
     65 CA         33.6606   27.1159    5.6217 C.3       11 UNK         0.1003 
     66 C          34.7629   27.7250    6.5448 C.2       11 UNK         0.5709 
     67 N          34.8772   29.0428    6.6722 N.am      11 UNK        -0.7358 
     68 O          35.5606   26.9949    7.1287 O.2       11 UNK        -0.4999 
     69 C69        33.1644   25.7185    6.0977 C.3       12 UNK        -0.0954 
     70 S70        32.1224   24.8848    4.8550 S.3       12 UNK        -0.2268 
     71 C71        33.3801   24.1477    3.7690 C.3       12 UNK         0.0203 
     72 H72        29.8241   21.3010    4.3444 H         1 UNK         0.0888 
     73 H73        30.4729   22.7498    3.5713 H         1 UNK         0.0888 
     74 H74        29.0574   22.8621    4.6209 H         1 UNK         0.0888 
     75 H75        30.2013   21.1901    1.6666 H         1 UNK         0.3017 
     76 H76        27.9273   19.9932    0.8785 H         1 UNK         0.0873 
     77 H77        28.9898   19.6013   -1.2829 H         1 UNK         0.0745 
     78 H78        30.1335   19.4071    0.0002 H         1 UNK         0.0745 
     79 H79        32.0810   20.6043    0.4374 H         1 UNK         0.0705 
     80 H80        32.9968   21.1987   -0.9188 H         1 UNK         0.0705 
     81 H81        32.7355   21.9338    2.3044 H         1 UNK         0.1334 
     82 H82        33.0466   26.1999    2.0157 H         1 UNK         0.1417 
     83 H83        32.0251   23.8908   -1.4472 H         1 UNK         0.1562 
     84 H84        33.0127   26.2038   -1.6182 H         1 UNK         0.0748 
     85 H85        33.1537   27.2120   -0.2109 H         1 UNK         0.0748 
     86 H86        30.9272   29.3690   -0.3370 H         1 UNK         0.0940 
     87 H87        31.4798   28.3488    0.9638 H         1 UNK         0.0940 
     88 H88        28.5691   28.5744    0.0260 H         1 UNK         0.0703 
     89 H89        28.1397   26.7868    1.2348 H         1 UNK         0.3081 
     90 H90        29.5085   24.9478    3.5103 H         1 UNK         0.0719 
     91 H91        29.6151   26.4348    5.4897 H         1 UNK         0.0809 
     92 H92        28.0176   27.0730    5.1451 H         1 UNK         0.0809 
     93 H93        28.2167   25.3860    5.6213 H         1 UNK         0.0809 
     94 H94        27.5240   24.3187    2.7565 H         1 UNK         0.2990 
     95 H95        24.9182   24.4905    2.7435 H         1 UNK         0.0690 
     96 H96        23.3524   25.5834    1.1265 H         1 UNK         0.0788 
     97 H97        24.4615   26.9431    0.9549 H         1 UNK         0.0788 
     98 H98        23.6819   26.6295    2.4980 H         1 UNK         0.0788 
     99 H99        25.6957   23.5048    0.9046 H         1 UNK         0.2993 
    100 H100       26.2162   23.5545   -1.6316 H         1 UNK         0.0949 
    101 H101       28.2609   23.9282   -2.9934 H         1 UNK         0.0767 
    102 H102       27.3767   25.4319   -2.7826 H         1 UNK         0.0767 
    103 H103       28.8340   25.1321   -1.8439 H         1 UNK         0.0767 
    104 H104       28.8138   23.2759   -0.1614 H         1 UNK         0.3013 
    105 H105       27.2916   29.0159    2.3408 H         1 UNK         0.3121 
    106 H106       28.3350   30.6425    4.2684 H         1 UNK         0.0774 
    107 H107       25.9423   31.1948    4.8089 H         1 UNK         0.0815 
    108 H108       25.4488   30.5013    3.2693 H         1 UNK         0.0815 
    109 H109       26.1908   29.4858    4.5059 H         1 UNK         0.0815 
    110 H110       27.1628   31.7684    1.1501 H         1 UNK         0.2987 
    111 H111       27.1137   34.5889    1.8754 H         1 UNK         0.0949 
    112 H112       27.0042   33.1920   -0.8549 H         1 UNK         0.0806 
    113 H113       25.6098   33.6556    0.1223 H         1 UNK         0.0806 
    114 H114       26.6573   34.8890   -0.5557 H         1 UNK         0.0806 
    115 H115       29.6739   32.4134    1.0714 H         1 UNK         0.3010 
    116 H116       31.4164   34.6399    0.0561 H         1 UNK         0.0829 
    117 H117       30.8554   33.0104   -1.7227 H         1 UNK         0.0813 
    118 H118       32.5543   32.8964   -1.2933 H         1 UNK         0.0813 
    119 H119       31.4242   31.6791   -0.7177 H         1 UNK         0.0813 
    120 H120       31.3355   31.6409    2.0415 H         1 UNK         0.3038 
    121 H121       33.8516   32.5080    3.3941 H         1 UNK         0.0769 
    122 H122       34.8014   30.2177    3.0421 H         1 UNK         0.0811 
    123 H123       34.5644   31.0564    1.5183 H         1 UNK         0.0811 
    124 H124       33.4339   29.7995    2.0165 H         1 UNK         0.0811 
    125 H125       30.9805   30.3786    3.4537 H         1 UNK         0.3204 
    126 H126       29.9657   29.1984    5.0487 H         1 UNK         0.0748 
    127 H127       29.6467   30.2304    7.2494 H         1 UNK         0.0771 
    128 H128       31.0705   31.2400    7.0468 H         1 UNK         0.0771 
    129 H129       29.6498   31.5068    6.0431 H         1 UNK         0.0771 
    130 H130       32.4370   28.2019    4.2816 H         1 UNK         0.2980 
    131 H131       34.1875   26.9572    4.6810 H         1 UNK         0.0545 
    132 H132       35.6043   29.4137    7.2620 H         1 UNK         0.3459 
    133 H133       34.2360   29.6783    6.2087 H         1 UNK         0.3459 
    134 H134       32.5904   25.8142    7.0203 H         1 UNK         0.0616 
    135 H135       34.0024   25.0586    6.3281 H         1 UNK         0.0616 
    136 H136       33.6350   23.1575    4.1491 H         1 UNK         0.0634 
    137 H137       34.2986   24.7341    3.8086 H         1 UNK         0.0634 
@<TRIPOS>BOND
     1    1    2 1    
     2    1   72 1    
     3    1   73 1    
     4    1   74 1    
     5    2    3 2    
     6    2    4 am   BACKBONE|DICT|INTERRES
     7    4    5 1    
     8    4   75 1    
     9    5    6 1    
    10    5   35 1    
    11    5   76 1    
    12    6    7 1    
    13    6   77 1    
    14    6   78 1    
    15    7    8 1    
    16    8    9 1    
    17    8   79 1    
    18    8   80 1    
    19    9   10 ar   
    20    9   14 ar   
    21   10   11 ar   
    22   10   81 1    
    23   11   12 ar   
    24   11   71 1    
    25   12   13 ar   
    26   12   82 1    
    27   13   14 ar   
    28   13   15 1    
    29   14   83 1    
    30   15   16 1    
    31   15   84 1    
    32   15   85 1    
    33   16   17 1    
    34   17   18 1    
    35   17   86 1    
    36   17   87 1    
    37   18   19 1    
    38   18   37 1    
    39   18   88 1    
    40   19   20 am   BACKBONE|DICT|INTERRES
    41   19   89 1    
    42   20   21 2    
    43   20   22 1    
    44   22   23 1    
    45   22   24 1    
    46   22   90 1    
    47   23   91 1    
    48   23   92 1    
    49   23   93 1    
    50   24   25 am   BACKBONE|DICT|INTERRES
    51   24   94 1    
    52   25   26 2    
    53   25   27 1    
    54   27   28 1    
    55   27   29 1    
    56   27   95 1    
    57   28   96 1    
    58   28   97 1    
    59   28   98 1    
    60   29   30 am   BACKBONE|DICT|INTERRES
    61   29   99 1    
    62   30   31 2    
    63   30   32 1    
    64   32   33 1    
    65   32   34 1    
    66   32  100 1    
    67   33  101 1    
    68   33  102 1    
    69   33  103 1    
    70   34   35 am   BACKBONE|DICT|INTERRES
    71   34  104 1    
    72   35   36 2    
    73   37   38 2    
    74   37   39 am   BACKBONE|DICT|INTERRES
    75   39   40 1    
    76   39  105 1    
    77   40   41 1    
    78   40   42 1    
    79   40  106 1    
    80   41  107 1    
    81   41  108 1    
    82   41  109 1    
    83   42   43 2    
    84   42   44 am   BACKBONE|DICT|INTERRES
    85   44   45 1    
    86   44  110 1    
    87   45   46 1    
    88   45   47 1    
    89   45  111 1    
    90   46  112 1    
    91   46  113 1    
    92   46  114 1    
    93   47   48 2    
    94   47   49 am   BACKBONE|DICT|INTERRES
    95   49   50 1    
    96   49  115 1    
    97   50   51 1    
    98   50   52 1    
    99   50  116 1    
   100   51  117 1    
   101   51  118 1    
   102   51  119 1    
   103   52   53 2    
   104   52   54 am   BACKBONE|DICT|INTERRES
   105   54   55 1    
   106   54  120 1    
   107   55   56 1    
   108   55   57 1    
   109   55  121 1    
   110   56  122 1    
   111   56  123 1    
   112   56  124 1    
   113   57   58 2    
   114   57   59 am   BACKBONE|DICT|INTERRES
   115   59   60 1    
   116   59  125 1    
   117   60   61 1    
   118   60   62 1    
   119   60  126 1    
   120   61  127 1    
   121   61  128 1    
   122   61  129 1    
   123   62   63 2    
   124   62   64 am   BACKBONE|DICT|INTERRES
   125   64   65 1    
   126   64  130 1    
   127   65   66 1    
   128   65   69 1    
   129   65  131 1    
   130   66   67 am   BACKBONE|DICT|INTERRES
   131   66   68 2    
   132   67  132 1    
   133   67  133 1    
   134   69   70 1    
   135   69  134 1    
   136   69  135 1    
   137   70   71 1    
   138   71  136 1    
   139   71  137 1    
@<TRIPOS>SUBSTRUCTURE
     1 UNK         1 GROUP             0       ****    0 ROOT    
