@<TRIPOS>MOLECULE
3R136
137   139    1
SMALL
USER_CHARGES


@<TRIPOS>ATOM
      1 CA         31.8230   23.4424   -3.3347 C.3       0 UNK        -0.1979 
      2 C          30.8514   24.4967   -2.8261 C.2       0 UNK         0.4864 
      3 O          30.5495   25.4491   -3.5453 O.2       0 UNK        -0.5359 
      4 N          30.3502   24.3295   -1.5948 N.am      1 UNK        -0.4318 
      5 CA         29.4284   25.2576   -0.9272 C.3       1 UNK         0.0824 
      6 C6         29.6494   25.2508    0.6049 C.3       12 UNK        -0.0944 
      7 S7         29.1400   23.7113    1.4505 S.3       12 UNK        -0.2672 
      8 C8         30.3637   23.6147    2.7972 C.3       12 UNK         0.0333 
      9 C9         30.3312   24.8537    3.6814 C.ar      12 UNK        -0.0807 
     10 C10        31.3639   25.7941    3.6149 C.ar      12 UNK        -0.0894 
     11 C11        31.3304   26.9435    4.4094 C.ar      12 UNK        -0.0804 
     12 C12        30.2438   27.1583    5.2621 C.ar      12 UNK        -0.0824 
     13 C13        29.2080   26.2223    5.3427 C.ar      12 UNK        -0.0762 
     14 C14        29.2650   25.0640    4.5606 C.ar      12 UNK        -0.0782 
     15 C15        28.0281   26.4659    6.2748 C.3       12 UNK         0.0230 
     16 S16        26.4450   26.5930    5.3801 S.3       12 UNK        -0.2608 
     17 C17        26.7521   27.9901    4.2423 C.3       12 UNK        -0.0989 
     18 CA         27.0626   27.5148    2.7940 C.3       5 UNK         0.0716 
     19 N          26.0410   26.6251    2.2267 N.am      5 UNK        -0.4135 
     20 C          24.7649   26.9431    1.9594 C.2       4 UNK         0.5031 
     21 O          24.2605   28.0364    2.2202 O.2       4 UNK        -0.5229 
     22 CA         23.9056   25.8803    1.2549 C.3       4 UNK         0.0329 
     23 CB         23.2978   26.4473   -0.0412 C.3       4 UNK        -0.2001 
     24 N          24.6805   24.6884    0.9082 N.am      4 UNK        -0.4303 
     25 C          24.4503   23.4438    1.3491 C.2       3 UNK         0.5044 
     26 O          23.5877   23.1642    2.1830 O.2       3 UNK        -0.5152 
     27 CA         25.3359   22.3199    0.7628 C.3       3 UNK         0.0319 
     28 CB         24.5739   20.9871    0.6045 C.3       3 UNK        -0.2001 
     29 N          26.0078   22.6967   -0.4897 N.am      3 UNK        -0.4354 
     30 C          25.4354   23.0610   -1.6504 C.2       2 UNK         0.4964 
     31 O          24.2279   22.9712   -1.8751 O.2       2 UNK        -0.5047 
     32 CA         26.3592   23.6706   -2.7267 C.3       2 UNK         0.0288 
     33 CB         25.6738   24.8288   -3.4845 C.3       2 UNK        -0.2113 
     34 N          27.6738   24.1001   -2.2243 N.am      2 UNK        -0.4145 
     35 C          27.9439   25.0396   -1.3017 C.2       1 UNK         0.5006 
     36 O          27.0763   25.6868   -0.7053 O.2       1 UNK        -0.5103 
     37 C          27.3968   28.6751    1.8274 C.2       5 UNK         0.5055 
     38 O          27.6533   29.7954    2.2709 O.2       5 UNK        -0.5220 
     39 N          27.3771   28.3885    0.5149 N.am      6 UNK        -0.4450 
     40 CA         27.5991   29.3648   -0.5558 C.3       6 UNK         0.0367 
     41 CB         26.9725   28.8304   -1.8552 C.3       6 UNK        -0.1929 
     42 C          29.0806   29.7214   -0.7796 C.2       6 UNK         0.5070 
     43 O          29.3595   30.6804   -1.5002 O.2       6 UNK        -0.5237 
     44 N          30.0047   28.9498   -0.1909 N.am      7 UNK        -0.4739 
     45 CA         31.4457   29.1909   -0.2576 C.3       7 UNK         0.0276 
     46 CB         32.2008   27.9186    0.1603 C.3       7 UNK        -0.1927 
     47 C          31.8344   30.3814    0.6326 C.2       7 UNK         0.5013 
     48 O          31.5593   30.3564    1.8343 O.2       7 UNK        -0.5193 
     49 N          32.4702   31.3941    0.0322 N.am      8 UNK        -0.4253 
     50 CA         32.9407   32.6033    0.7069 C.3       8 UNK         0.0242 
     51 CB         33.0238   33.7482   -0.3205 C.3       8 UNK        -0.2000 
     52 C          34.2861   32.3414    1.4045 C.2       8 UNK         0.4948 
     53 O          35.3364   32.7165    0.8788 O.2       8 UNK        -0.5275 
     54 N          34.2304   31.6791    2.5628 N.am      9 UNK        -0.4246 
     55 CA         35.3724   31.3662    3.4152 C.3       9 UNK         0.0261 
     56 CB         35.9199   29.9748    3.0523 C.3       9 UNK        -0.1959 
     57 C          34.9245   31.4207    4.8786 C.2       9 UNK         0.5033 
     58 O          33.7440   31.2038    5.1678 O.2       9 UNK        -0.5390 
     59 N          35.8756   31.6813    5.7833 N.am      10 UNK        -0.4215 
     60 CA         35.6670   31.7528    7.2328 C.3       10 UNK         0.0240 
     61 CB         36.7607   32.6448    7.8514 C.3       10 UNK        -0.1982 
     62 C          35.6128   30.3495    7.8687 C.2       10 UNK         0.4970 
     63 O          36.4488   30.0185    8.7120 O.2       10 UNK        -0.4916 
     64 N          34.6468   29.5406    7.4226 N.am      11 UNK        -0.4279 
     65 CA         34.3931   28.1729    7.8939 C.3       11 UNK         0.1003 
     66 C          33.9337   28.1232    9.3771 C.2       11 UNK         0.5709 
     67 N          34.2954   27.0742   10.1034 N.am      11 UNK        -0.7358 
     68 O          33.2220   29.0021    9.8612 O.2       11 UNK        -0.4999 
     69 C69        33.3756   27.4416    6.9827 C.3       12 UNK        -0.0954 
     70 S70        33.9360   27.3383    5.2484 S.3       12 UNK        -0.2268 
     71 C71        32.4743   27.9461    4.3493 C.3       12 UNK         0.0203 
     72 H72        31.4372   22.9830   -4.2444 H         1 UNK         0.0888 
     73 H73        32.7846   23.9001   -3.5656 H         1 UNK         0.0888 
     74 H74        31.9908   22.6540   -2.6011 H         1 UNK         0.0888 
     75 H75        30.6234   23.5238   -1.0483 H         1 UNK         0.3017 
     76 H76        29.6642   26.2657   -1.2746 H         1 UNK         0.0873 
     77 H77        30.7054   25.4282    0.8093 H         1 UNK         0.0745 
     78 H78        29.1221   26.0829    1.0671 H         1 UNK         0.0745 
     79 H79        30.1568   22.7309    3.4023 H         1 UNK         0.0705 
     80 H80        31.3567   23.4677    2.3696 H         1 UNK         0.0705 
     81 H81        32.2007   25.6316    2.9495 H         1 UNK         0.1334 
     82 H82        30.2092   28.0527    5.8690 H         1 UNK         0.1417 
     83 H83        28.4632   24.3398    4.6148 H         1 UNK         0.1562 
     84 H84        28.1747   27.3727    6.8638 H         1 UNK         0.0748 
     85 H85        27.9644   25.6441    6.9894 H         1 UNK         0.0748 
     86 H86        27.5743   28.5922    4.6336 H         1 UNK         0.0940 
     87 H87        25.8765   28.6410    4.2543 H         1 UNK         0.0940 
     88 H88        27.9738   26.9210    2.8473 H         1 UNK         0.0703 
     89 H89        26.3524   25.6952    1.9889 H         1 UNK         0.3081 
     90 H90        23.0924   25.6254    1.9373 H         1 UNK         0.0719 
     91 H91        22.6647   27.3115    0.1639 H         1 UNK         0.0809 
     92 H92        24.0713   26.7659   -0.7415 H         1 UNK         0.0809 
     93 H93        22.6778   25.7050   -0.5446 H         1 UNK         0.0809 
     94 H94        25.4168   24.8273    0.2237 H         1 UNK         0.2990 
     95 H95        26.1315   22.1588    1.4919 H         1 UNK         0.0690 
     96 H96        25.2167   20.2090    0.1930 H         1 UNK         0.0788 
     97 H97        23.7083   21.0894   -0.0506 H         1 UNK         0.0788 
     98 H98        24.2095   20.6277    1.5676 H         1 UNK         0.0788 
     99 H99        27.0102   22.8042   -0.4190 H         1 UNK         0.2993 
    100 H100       26.5504   22.8708   -3.4438 H         1 UNK         0.0949 
    101 H101       25.3822   25.6369   -2.8126 H         1 UNK         0.0767 
    102 H102       26.3312   25.2480   -4.2463 H         1 UNK         0.0767 
    103 H103       24.7707   24.4877   -3.9921 H         1 UNK         0.0767 
    104 H104       28.4667   23.6211   -2.6277 H         1 UNK         0.3013 
    105 H105       27.1458   27.4446    0.2182 H         1 UNK         0.3121 
    106 H106       27.0818   30.2888   -0.2883 H         1 UNK         0.0774 
    107 H107       27.4880   27.9414   -2.2190 H         1 UNK         0.0815 
    108 H108       25.9213   28.5764   -1.7173 H         1 UNK         0.0815 
    109 H109       27.0226   29.5786   -2.6473 H         1 UNK         0.0815 
    110 H110       29.6902   28.2363    0.4470 H         1 UNK         0.2987 
    111 H111       31.7122   29.4160   -1.2929 H         1 UNK         0.0949 
    112 H112       32.0199   27.1029   -0.5396 H         1 UNK         0.0806 
    113 H113       33.2777   28.0917    0.1806 H         1 UNK         0.0806 
    114 H114       31.9062   27.5839    1.1546 H         1 UNK         0.0806 
    115 H115       32.6751   31.3249   -0.9543 H         1 UNK         0.3010 
    116 H116       32.2162   32.8960    1.4706 H         1 UNK         0.0829 
    117 H117       33.7090   33.5154   -1.1367 H         1 UNK         0.0813 
    118 H118       33.3767   34.6674    0.1491 H         1 UNK         0.0813 
    119 H119       32.0468   33.9619   -0.7545 H         1 UNK         0.0813 
    120 H120       33.3287   31.3986    2.9358 H         1 UNK         0.3038 
    121 H121       36.1550   32.1147    3.2714 H         1 UNK         0.0769 
    122 H122       36.2884   29.9510    2.0266 H         1 UNK         0.0811 
    123 H123       35.1537   29.2051    3.1478 H         1 UNK         0.0811 
    124 H124       36.7497   29.6932    3.7017 H         1 UNK         0.0811 
    125 H125       36.8261   31.8043    5.4635 H         1 UNK         0.3204 
    126 H126       34.7042   32.2304    7.4279 H         1 UNK         0.0748 
    127 H127       37.7584   32.2334    7.6923 H         1 UNK         0.0771 
    128 H128       36.7401   33.6489    7.4272 H         1 UNK         0.0771 
    129 H129       36.6179   32.7483    8.9280 H         1 UNK         0.0771 
    130 H130       34.0242   29.8960    6.7053 H         1 UNK         0.2980 
    131 H131       35.3430   27.6384    7.8286 H         1 UNK         0.0545 
    132 H132       33.9946   27.0166   11.0638 H         1 UNK         0.3459 
    133 H133       34.8677   26.3416    9.7132 H         1 UNK         0.3459 
    134 H134       32.4077   27.9425    7.0295 H         1 UNK         0.0616 
    135 H135       33.2083   26.4213    7.3327 H         1 UNK         0.0616 
    136 H136       32.7516   28.1249    3.3104 H         1 UNK         0.0634 
    137 H137       32.1705   28.9140    4.7512 H         1 UNK         0.0634 
@<TRIPOS>BOND
     1    1    2 1    
     2    1   72 1    
     3    1   73 1    
     4    1   74 1    
     5    2    3 2    
     6    2    4 am   BACKBONE|DICT|INTERRES
     7    4    5 1    
     8    4   75 1    
     9    5    6 1    
    10    5   35 1    
    11    5   76 1    
    12    6    7 1    
    13    6   77 1    
    14    6   78 1    
    15    7    8 1    
    16    8    9 1    
    17    8   79 1    
    18    8   80 1    
    19    9   10 ar   
    20    9   14 ar   
    21   10   11 ar   
    22   10   81 1    
    23   11   12 ar   
    24   11   71 1    
    25   12   13 ar   
    26   12   82 1    
    27   13   14 ar   
    28   13   15 1    
    29   14   83 1    
    30   15   16 1    
    31   15   84 1    
    32   15   85 1    
    33   16   17 1    
    34   17   18 1    
    35   17   86 1    
    36   17   87 1    
    37   18   19 1    
    38   18   37 1    
    39   18   88 1    
    40   19   20 am   BACKBONE|DICT|INTERRES
    41   19   89 1    
    42   20   21 2    
    43   20   22 1    
    44   22   23 1    
    45   22   24 1    
    46   22   90 1    
    47   23   91 1    
    48   23   92 1    
    49   23   93 1    
    50   24   25 am   BACKBONE|DICT|INTERRES
    51   24   94 1    
    52   25   26 2    
    53   25   27 1    
    54   27   28 1    
    55   27   29 1    
    56   27   95 1    
    57   28   96 1    
    58   28   97 1    
    59   28   98 1    
    60   29   30 am   BACKBONE|DICT|INTERRES
    61   29   99 1    
    62   30   31 2    
    63   30   32 1    
    64   32   33 1    
    65   32   34 1    
    66   32  100 1    
    67   33  101 1    
    68   33  102 1    
    69   33  103 1    
    70   34   35 am   BACKBONE|DICT|INTERRES
    71   34  104 1    
    72   35   36 2    
    73   37   38 2    
    74   37   39 am   BACKBONE|DICT|INTERRES
    75   39   40 1    
    76   39  105 1    
    77   40   41 1    
    78   40   42 1    
    79   40  106 1    
    80   41  107 1    
    81   41  108 1    
    82   41  109 1    
    83   42   43 2    
    84   42   44 am   BACKBONE|DICT|INTERRES
    85   44   45 1    
    86   44  110 1    
    87   45   46 1    
    88   45   47 1    
    89   45  111 1    
    90   46  112 1    
    91   46  113 1    
    92   46  114 1    
    93   47   48 2    
    94   47   49 am   BACKBONE|DICT|INTERRES
    95   49   50 1    
    96   49  115 1    
    97   50   51 1    
    98   50   52 1    
    99   50  116 1    
   100   51  117 1    
   101   51  118 1    
   102   51  119 1    
   103   52   53 2    
   104   52   54 am   BACKBONE|DICT|INTERRES
   105   54   55 1    
   106   54  120 1    
   107   55   56 1    
   108   55   57 1    
   109   55  121 1    
   110   56  122 1    
   111   56  123 1    
   112   56  124 1    
   113   57   58 2    
   114   57   59 am   BACKBONE|DICT|INTERRES
   115   59   60 1    
   116   59  125 1    
   117   60   61 1    
   118   60   62 1    
   119   60  126 1    
   120   61  127 1    
   121   61  128 1    
   122   61  129 1    
   123   62   63 2    
   124   62   64 am   BACKBONE|DICT|INTERRES
   125   64   65 1    
   126   64  130 1    
   127   65   66 1    
   128   65   69 1    
   129   65  131 1    
   130   66   67 am   BACKBONE|DICT|INTERRES
   131   66   68 2    
   132   67  132 1    
   133   67  133 1    
   134   69   70 1    
   135   69  134 1    
   136   69  135 1    
   137   70   71 1    
   138   71  136 1    
   139   71  137 1    
@<TRIPOS>SUBSTRUCTURE
     1 UNK         1 GROUP             0       ****    0 ROOT    
