@<TRIPOS>MOLECULE
3R136
137   139    1
SMALL
USER_CHARGES


@<TRIPOS>ATOM
      1 CA         28.6716   28.5395   -1.8728 C.3       0 UNK        -0.1979 
      2 C          28.4585   27.1866   -1.2128 C.2       0 UNK         0.4864 
      3 O          27.4446   26.9939   -0.5410 O.2       0 UNK        -0.5359 
      4 N          29.4009   26.2499   -1.3961 N.am      1 UNK        -0.4318 
      5 CA         29.4109   24.9037   -0.8032 C.3       1 UNK         0.0824 
      6 C6         30.6455   24.0721   -1.2370 C.3       12 UNK        -0.0944 
      7 S7         32.2335   24.9469   -1.0272 S.3       12 UNK        -0.2672 
      8 C8         33.0175   24.0116    0.3225 C.3       12 UNK         0.0333 
      9 C9         32.5903   24.5339    1.6845 C.ar      12 UNK        -0.0807 
     10 C10        33.1874   25.6878    2.1972 C.ar      12 UNK        -0.0894 
     11 C11        32.8265   26.1782    3.4542 C.ar      12 UNK        -0.0804 
     12 C12        31.8624   25.5021    4.2061 C.ar      12 UNK        -0.0824 
     13 C13        31.2658   24.3384    3.7087 C.ar      12 UNK        -0.0762 
     14 C14        31.6291   23.8609    2.4444 C.ar      12 UNK        -0.0782 
     15 C15        30.2583   23.5736    4.5545 C.3       12 UNK         0.0230 
     16 S16        28.5725   23.6664    3.8786 S.3       12 UNK        -0.2608 
     17 C17        28.1468   25.4256    4.1298 C.3       12 UNK        -0.0989 
     18 CA         27.6885   26.1109    2.8122 C.3       5 UNK         0.0716 
     19 N          26.5719   25.4097    2.1623 N.am      5 UNK        -0.4135 
     20 C          25.3339   25.2552    2.6563 C.2       4 UNK         0.5031 
     21 O          24.9400   25.7507    3.7143 O.2       4 UNK        -0.5229 
     22 CA         24.3884   24.3710    1.8235 C.3       4 UNK         0.0329 
     23 CB         22.9558   24.2917    2.3952 C.3       4 UNK        -0.2001 
     24 N          24.3776   24.7518    0.4087 N.am      4 UNK        -0.4303 
     25 C          23.9596   25.9066   -0.1326 C.2       3 UNK         0.5044 
     26 O          23.4551   26.8240    0.5153 O.2       3 UNK        -0.5152 
     27 CA         24.1350   26.0582   -1.6586 C.3       3 UNK         0.0319 
     28 CB         24.2885   27.5270   -2.0937 C.3       3 UNK        -0.2001 
     29 N          25.2878   25.2994   -2.1495 N.am      3 UNK        -0.4354 
     30 C          25.2555   24.0305   -2.5795 C.2       2 UNK         0.4964 
     31 O          24.2208   23.3698   -2.6667 O.2       2 UNK        -0.5047 
     32 CA         26.5957   23.3652   -2.9416 C.3       2 UNK         0.0288 
     33 CB         26.7404   23.2473   -4.4680 C.3       2 UNK        -0.2113 
     34 N          27.7753   24.0498   -2.4044 N.am      2 UNK        -0.4145 
     35 C          28.1167   24.1223   -1.1085 C.2       1 UNK         0.5006 
     36 O          27.4416   23.6611   -0.1858 O.2       1 UNK        -0.5103 
     37 C          27.3838   27.6145    2.9922 C.2       5 UNK         0.5055 
     38 O          27.5354   28.1569    4.0898 O.2       5 UNK        -0.5220 
     39 N          26.9474   28.2654    1.9060 N.am      6 UNK        -0.4450 
     40 CA         26.5046   29.6611    1.8557 C.3       6 UNK         0.0367 
     41 CB         25.5935   29.8475    0.6291 C.3       6 UNK        -0.1929 
     42 C          27.6738   30.6659    1.8732 C.2       6 UNK         0.5070 
     43 O          27.8073   31.4681    0.9478 O.2       6 UNK        -0.5237 
     44 N          28.4917   30.6053    2.9337 N.am      7 UNK        -0.4739 
     45 CA         29.6132   31.4995    3.2539 C.3       7 UNK         0.0276 
     46 CB         29.0833   32.8859    3.6782 C.3       7 UNK        -0.1927 
     47 C          30.6735   31.5822    2.1371 C.2       7 UNK         0.5013 
     48 O          31.1040   32.6775    1.7703 O.2       7 UNK        -0.5193 
     49 N          31.0782   30.4125    1.6193 N.am      8 UNK        -0.4253 
     50 CA         32.1021   30.2643    0.5758 C.3       8 UNK         0.0242 
     51 CB         32.1380   28.7982    0.1135 C.3       8 UNK        -0.2000 
     52 C          33.5074   30.7263    1.0124 C.2       8 UNK         0.4948 
     53 O          34.3057   31.1280    0.1652 O.2       8 UNK        -0.5275 
     54 N          33.7686   30.6710    2.3214 N.am      9 UNK        -0.4246 
     55 CA         34.9605   31.1250    3.0259 C.3       9 UNK         0.0261 
     56 CB         36.1528   30.1878    2.7457 C.3       9 UNK        -0.1959 
     57 C          34.6027   31.1570    4.5186 C.2       9 UNK         0.5033 
     58 O          33.5312   30.6715    4.9008 O.2       9 UNK        -0.5390 
     59 N          35.5021   31.6979    5.3487 N.am      10 UNK        -0.4215 
     60 CA         35.3635   31.7713    6.8085 C.3       10 UNK         0.0240 
     61 CB         36.2581   32.9090    7.3373 C.3       10 UNK        -0.1982 
     62 C          35.6543   30.4173    7.4926 C.2       10 UNK         0.4970 
     63 O          36.5488   30.3302    8.3364 O.2       10 UNK        -0.4916 
     64 N          34.9130   29.3798    7.0909 N.am      11 UNK        -0.4279 
     65 CA         35.0126   28.0074    7.6064 C.3       11 UNK         0.1003 
     66 C          34.5012   27.8804    9.0670 C.2       11 UNK         0.5709 
     67 N          35.0553   26.9552    9.8389 N.am      11 UNK        -0.7358 
     68 O          33.5852   28.5818    9.4941 O.2       11 UNK        -0.4999 
     69 C69        34.2954   26.9929    6.6767 C.3       12 UNK        -0.0954 
     70 S70        34.9656   27.0279    4.9789 S.3       12 UNK        -0.2268 
     71 C71        33.4920   27.4331    3.9918 C.3       12 UNK         0.0203 
     72 H72        28.7304   29.3200   -1.1141 H         1 UNK         0.0888 
     73 H73        29.5878   28.5672   -2.4621 H         1 UNK         0.0888 
     74 H74        27.8353   28.7691   -2.5323 H         1 UNK         0.0888 
     75 H75        30.2185   26.4730   -1.9464 H         1 UNK         0.3017 
     76 H76        29.4660   25.0332    0.2785 H         1 UNK         0.0873 
     77 H77        30.6727   23.1289   -0.6883 H         1 UNK         0.0745 
     78 H78        30.5770   23.7990   -2.2918 H         1 UNK         0.0745 
     79 H79        32.8049   22.9461    0.2237 H         1 UNK         0.0705 
     80 H80        34.0999   24.1089    0.2262 H         1 UNK         0.0705 
     81 H81        33.9390   26.2034    1.6146 H         1 UNK         0.1334 
     82 H82        31.5909   25.8734    5.1847 H         1 UNK         0.1417 
     83 H83        31.1693   22.9604    2.0602 H         1 UNK         0.1562 
     84 H84        30.2533   23.9356    5.5839 H         1 UNK         0.0748 
     85 H85        30.5584   22.5259    4.6035 H         1 UNK         0.0748 
     86 H86        29.0055   25.9519    4.5490 H         1 UNK         0.0940 
     87 H87        27.3648   25.4830    4.8890 H         1 UNK         0.0940 
     88 H88        28.5256   26.0652    2.1156 H         1 UNK         0.0703 
     89 H89        26.7937   24.9527    1.2842 H         1 UNK         0.3081 
     90 H90        24.8085   23.3646    1.8618 H         1 UNK         0.0719 
     91 H91        22.4811   25.2720    2.4448 H         1 UNK         0.0809 
     92 H92        22.3227   23.6418    1.7913 H         1 UNK         0.0809 
     93 H93        22.9639   23.8860    3.4076 H         1 UNK         0.0809 
     94 H94        24.7908   24.0774   -0.2205 H         1 UNK         0.2990 
     95 H95        23.2219   25.6737   -2.1176 H         1 UNK         0.0690 
     96 H96        24.3578   27.6121   -3.1782 H         1 UNK         0.0788 
     97 H97        25.1825   27.9791   -1.6665 H         1 UNK         0.0788 
     98 H98        23.4336   28.1266   -1.7786 H         1 UNK         0.0788 
     99 H99        26.1870   25.7484   -2.0338 H         1 UNK         0.2993 
    100 H100       26.5754   22.3577   -2.5199 H         1 UNK         0.0949 
    101 H101       25.8952   22.7099   -4.9010 H         1 UNK         0.0767 
    102 H102       26.7833   24.2266   -4.9465 H         1 UNK         0.0767 
    103 H103       27.6425   22.6989   -4.7406 H         1 UNK         0.0767 
    104 H104       28.3804   24.4948   -3.0796 H         1 UNK         0.3013 
    105 H105       26.9299   27.7570    1.0220 H         1 UNK         0.3121 
    106 H106       25.9016   29.8597    2.7443 H         1 UNK         0.0774 
    107 H107       26.1345   29.6737   -0.3013 H         1 UNK         0.0815 
    108 H108       25.1919   30.8607    0.5890 H         1 UNK         0.0815 
    109 H109       24.7436   29.1666    0.6587 H         1 UNK         0.0815 
    110 H110       28.2950   29.8712    3.6106 H         1 UNK         0.2987 
    111 H111       30.1199   31.0651    4.1176 H         1 UNK         0.0949 
    112 H112       28.5887   33.3993    2.8528 H         1 UNK         0.0806 
    113 H113       28.3700   32.8044    4.4982 H         1 UNK         0.0806 
    114 H114       29.8959   33.5279    4.0208 H         1 UNK         0.0806 
    115 H115       30.6527   29.5658    1.9667 H         1 UNK         0.3010 
    116 H116       31.8042   30.8855   -0.2716 H         1 UNK         0.0829 
    117 H117       32.8755   28.6535   -0.6773 H         1 UNK         0.0813 
    118 H118       32.3998   28.1249    0.9290 H         1 UNK         0.0813 
    119 H119       31.1748   28.4812   -0.2826 H         1 UNK         0.0813 
    120 H120       33.0375   30.3732    2.9571 H         1 UNK         0.3038 
    121 H121       35.1969   32.1403    2.7014 H         1 UNK         0.0769 
    122 H122       35.9548   29.1689    3.0769 H         1 UNK         0.0811 
    123 H123       37.0528   30.5265    3.2596 H         1 UNK         0.0811 
    124 H124       36.3910   30.1499    1.6829 H         1 UNK         0.0811 
    125 H125       36.3692   32.0451    4.9638 H         1 UNK         0.3204 
    126 H126       34.3295   32.0303    7.0475 H         1 UNK         0.0748 
    127 H127       36.1485   33.0234    8.4167 H         1 UNK         0.0771 
    128 H128       37.3134   32.7224    7.1340 H         1 UNK         0.0771 
    129 H129       35.9928   33.8650    6.8853 H         1 UNK         0.0771 
    130 H130       34.2070   29.5505    6.3828 H         1 UNK         0.2980 
    131 H131       36.0744   27.7523    7.6143 H         1 UNK         0.0545 
    132 H132       34.7274   26.8472   10.7860 H         1 UNK         0.3459 
    133 H133       35.7983   26.3662    9.4961 H         1 UNK         0.3459 
    134 H134       34.4187   25.9763    7.0543 H         1 UNK         0.0616 
    135 H135       33.2209   27.1819    6.6625 H         1 UNK         0.0616 
    136 H136       32.7853   28.0294    4.5701 H         1 UNK         0.0634 
    137 H137       33.8024   28.0604    3.1573 H         1 UNK         0.0634 
@<TRIPOS>BOND
     1    1    2 1    
     2    1   72 1    
     3    1   73 1    
     4    1   74 1    
     5    2    3 2    
     6    2    4 am   BACKBONE|DICT|INTERRES
     7    4    5 1    
     8    4   75 1    
     9    5    6 1    
    10    5   35 1    
    11    5   76 1    
    12    6    7 1    
    13    6   77 1    
    14    6   78 1    
    15    7    8 1    
    16    8    9 1    
    17    8   79 1    
    18    8   80 1    
    19    9   10 ar   
    20    9   14 ar   
    21   10   11 ar   
    22   10   81 1    
    23   11   12 ar   
    24   11   71 1    
    25   12   13 ar   
    26   12   82 1    
    27   13   14 ar   
    28   13   15 1    
    29   14   83 1    
    30   15   16 1    
    31   15   84 1    
    32   15   85 1    
    33   16   17 1    
    34   17   18 1    
    35   17   86 1    
    36   17   87 1    
    37   18   19 1    
    38   18   37 1    
    39   18   88 1    
    40   19   20 am   BACKBONE|DICT|INTERRES
    41   19   89 1    
    42   20   21 2    
    43   20   22 1    
    44   22   23 1    
    45   22   24 1    
    46   22   90 1    
    47   23   91 1    
    48   23   92 1    
    49   23   93 1    
    50   24   25 am   BACKBONE|DICT|INTERRES
    51   24   94 1    
    52   25   26 2    
    53   25   27 1    
    54   27   28 1    
    55   27   29 1    
    56   27   95 1    
    57   28   96 1    
    58   28   97 1    
    59   28   98 1    
    60   29   30 am   BACKBONE|DICT|INTERRES
    61   29   99 1    
    62   30   31 2    
    63   30   32 1    
    64   32   33 1    
    65   32   34 1    
    66   32  100 1    
    67   33  101 1    
    68   33  102 1    
    69   33  103 1    
    70   34   35 am   BACKBONE|DICT|INTERRES
    71   34  104 1    
    72   35   36 2    
    73   37   38 2    
    74   37   39 am   BACKBONE|DICT|INTERRES
    75   39   40 1    
    76   39  105 1    
    77   40   41 1    
    78   40   42 1    
    79   40  106 1    
    80   41  107 1    
    81   41  108 1    
    82   41  109 1    
    83   42   43 2    
    84   42   44 am   BACKBONE|DICT|INTERRES
    85   44   45 1    
    86   44  110 1    
    87   45   46 1    
    88   45   47 1    
    89   45  111 1    
    90   46  112 1    
    91   46  113 1    
    92   46  114 1    
    93   47   48 2    
    94   47   49 am   BACKBONE|DICT|INTERRES
    95   49   50 1    
    96   49  115 1    
    97   50   51 1    
    98   50   52 1    
    99   50  116 1    
   100   51  117 1    
   101   51  118 1    
   102   51  119 1    
   103   52   53 2    
   104   52   54 am   BACKBONE|DICT|INTERRES
   105   54   55 1    
   106   54  120 1    
   107   55   56 1    
   108   55   57 1    
   109   55  121 1    
   110   56  122 1    
   111   56  123 1    
   112   56  124 1    
   113   57   58 2    
   114   57   59 am   BACKBONE|DICT|INTERRES
   115   59   60 1    
   116   59  125 1    
   117   60   61 1    
   118   60   62 1    
   119   60  126 1    
   120   61  127 1    
   121   61  128 1    
   122   61  129 1    
   123   62   63 2    
   124   62   64 am   BACKBONE|DICT|INTERRES
   125   64   65 1    
   126   64  130 1    
   127   65   66 1    
   128   65   69 1    
   129   65  131 1    
   130   66   67 am   BACKBONE|DICT|INTERRES
   131   66   68 2    
   132   67  132 1    
   133   67  133 1    
   134   69   70 1    
   135   69  134 1    
   136   69  135 1    
   137   70   71 1    
   138   71  136 1    
   139   71  137 1    
@<TRIPOS>SUBSTRUCTURE
     1 UNK         1 GROUP             0       ****    0 ROOT    
