@<TRIPOS>MOLECULE
3R136
137   139    1
SMALL
USER_CHARGES


@<TRIPOS>ATOM
      1 CA         33.0288   22.9057   -1.2221 C.3       0 UNK        -0.1979 
      2 C          32.0012   24.0266   -1.1776 C.2       0 UNK         0.4864 
      3 O          32.0728   24.9552   -1.9825 O.2       0 UNK        -0.5359 
      4 N          31.0391   23.9437   -0.2486 N.am      1 UNK        -0.4318 
      5 CA         29.9848   24.9443   -0.0390 C.3       1 UNK         0.0824 
      6 C6         29.5532   24.9921    1.4464 C.3       12 UNK        -0.0944 
      7 S7         28.6453   23.5191    2.0416 S.3       12 UNK        -0.2672 
      8 C8         29.1310   23.4687    3.7992 C.3       12 UNK         0.0333 
      9 C9         28.8021   24.7731    4.5120 C.ar      12 UNK        -0.0807 
     10 C10        29.8109   25.7083    4.7622 C.ar      12 UNK        -0.0894 
     11 C11        29.5072   26.9392    5.3484 C.ar      12 UNK        -0.0804 
     12 C12        28.1880   27.2252    5.7065 C.ar      12 UNK        -0.0824 
     13 C13        27.1726   26.2924    5.4749 C.ar      12 UNK        -0.0762 
     14 C14        27.4866   25.0620    4.8876 C.ar      12 UNK        -0.0782 
     15 C15        25.7309   26.6354    5.8204 C.3       12 UNK         0.0230 
     16 S16        24.7114   26.8851    4.3296 S.3       12 UNK        -0.2608 
     17 C17        25.6322   28.1870    3.4331 C.3       12 UNK        -0.0989 
     18 CA         26.5034   27.6044    2.2824 C.3       5 UNK         0.0716 
     19 N          25.7471   26.7910    1.3220 N.am      5 UNK        -0.4135 
     20 C          24.7640   27.2155    0.5129 C.2       4 UNK         0.5031 
     21 O          24.3255   28.3667    0.5097 O.2       4 UNK        -0.5229 
     22 CA         24.1868   26.1996   -0.4866 C.3       4 UNK         0.0329 
     23 CB         24.3110   26.7294   -1.9267 C.3       4 UNK        -0.2001 
     24 N          24.8772   24.9117   -0.4173 N.am      4 UNK        -0.4303 
     25 C          24.3388   23.7459   -0.0337 C.2       3 UNK         0.5044 
     26 O          23.1841   23.6314    0.3798 O.2       3 UNK        -0.5152 
     27 CA         25.2460   22.4962   -0.1177 C.3       3 UNK         0.0319 
     28 CB         24.4674   21.2263   -0.5214 C.3       3 UNK        -0.2001 
     29 N          26.4289   22.6863   -0.9708 N.am      3 UNK        -0.4354 
     30 C          26.4544   22.9769   -2.2831 C.2       2 UNK         0.4964 
     31 O          25.4576   22.9624   -3.0061 O.2       2 UNK        -0.5047 
     32 CA         27.8125   23.4020   -2.8808 C.3       2 UNK         0.0288 
     33 CB         27.6535   24.5239   -3.9301 C.3       2 UNK        -0.2113 
     34 N          28.8235   23.7826   -1.8818 N.am      2 UNK        -0.4145 
     35 C          28.7773   24.7891   -0.9918 C.2       1 UNK         0.5006 
     36 O          27.8137   25.5516   -0.8622 O.2       1 UNK        -0.5103 
     37 C          27.3686   28.6675    1.5653 C.2       5 UNK         0.5055 
     38 O          27.5566   29.7672    2.0878 O.2       5 UNK        -0.5220 
     39 N          27.8761   28.3229    0.3697 N.am      6 UNK        -0.4450 
     40 CA         28.6140   29.2269   -0.5177 C.3       6 UNK         0.0367 
     41 CB         28.5968   28.6485   -1.9426 C.3       6 UNK        -0.1929 
     42 C          30.0604   29.5139   -0.0761 C.2       6 UNK         0.5070 
     43 O          30.6619   30.4610   -0.5842 O.2       6 UNK        -0.5237 
     44 N          30.6075   28.7111    0.8472 N.am      7 UNK        -0.4739 
     45 CA         31.9813   28.8104    1.3541 C.3       7 UNK         0.0276 
     46 CB         32.4189   27.4346    1.8911 C.3       7 UNK        -0.1927 
     47 C          32.1566   29.9423    2.3885 C.2       7 UNK         0.5013 
     48 O          32.6321   29.6996    3.4991 O.2       7 UNK        -0.5193 
     49 N          31.7691   31.1660    2.0066 N.am      8 UNK        -0.4253 
     50 CA         31.9268   32.3910    2.7940 C.3       8 UNK         0.0242 
     51 CB         31.2604   33.5587    2.0500 C.3       8 UNK        -0.2000 
     52 C          33.4086   32.6976    3.0677 C.2       8 UNK         0.4948 
     53 O          34.2483   32.4644    2.1948 O.2       8 UNK        -0.5275 
     54 N          33.7069   33.1757    4.2841 N.am      9 UNK        -0.4246 
     55 CA         35.0352   33.4631    4.8567 C.3       9 UNK         0.0261 
     56 CB         35.7838   34.5405    4.0472 C.3       9 UNK        -0.1959 
     57 C          35.9250   32.2227    5.0858 C.2       9 UNK         0.5033 
     58 O          36.6504   32.1840    6.0800 O.2       9 UNK        -0.5390 
     59 N          35.8415   31.2273    4.1948 N.am      10 UNK        -0.4215 
     60 CA         36.5100   29.9268    4.2877 C.3       10 UNK         0.0240 
     61 CB         36.4395   29.2378    2.9146 C.3       10 UNK        -0.1982 
     62 C          35.9286   29.0063    5.3790 C.2       10 UNK         0.4970 
     63 O          36.6101   28.0633    5.7835 O.2       10 UNK        -0.4916 
     64 N          34.6895   29.2790    5.8106 N.am      11 UNK        -0.4279 
     65 CA         33.9350   28.5559    6.8442 C.3       11 UNK         0.1003 
     66 C          34.6961   28.3838    8.1897 C.2       11 UNK         0.5709 
     67 N          34.5818   27.2261    8.8264 N.am      11 UNK        -0.7358 
     68 O          35.3475   29.3048    8.6795 O.2       11 UNK        -0.4999 
     69 C69        32.5473   29.2224    7.0692 C.3       12 UNK        -0.0954 
     70 S70        31.2178   27.9913    7.2558 S.3       12 UNK        -0.2268 
     71 C71        30.5950   27.9787    5.5506 C.3       12 UNK         0.0203 
     72 H72        32.8391   22.1475   -0.4624 H         1 UNK         0.0888 
     73 H73        33.0135   22.4202   -2.1975 H         1 UNK         0.0888 
     74 H74        34.0282   23.3076   -1.0571 H         1 UNK         0.0888 
     75 H75        31.0206   23.1558    0.3849 H         1 UNK         0.3017 
     76 H76        30.4076   25.9233   -0.2744 H         1 UNK         0.0873 
     77 H77        28.9360   25.8692    1.6327 H         1 UNK         0.0745 
     78 H78        30.4426   25.1254    2.0621 H         1 UNK         0.0745 
     79 H79        28.6129   22.6425    4.2881 H         1 UNK         0.0705 
     80 H80        30.1970   23.2470    3.8712 H         1 UNK         0.0705 
     81 H81        30.8304   25.4892    4.4761 H         1 UNK         0.1334 
     82 H82        27.9524   28.1832    6.1499 H         1 UNK         0.1417 
     83 H83        26.7002   24.3470    4.6860 H         1 UNK         0.1562 
     84 H84        25.6810   27.5322    6.4401 H         1 UNK         0.0748 
     85 H85        25.2996   25.8286    6.4145 H         1 UNK         0.0748 
     86 H86        26.2479   28.7410    4.1435 H         1 UNK         0.0940 
     87 H87        24.9133   28.9089    3.0429 H         1 UNK         0.0940 
     88 H88        27.2204   26.9247    2.7398 H         1 UNK         0.0703 
     89 H89        26.0224   25.8225    1.2548 H         1 UNK         0.3081 
     90 H90        23.1276   26.0812   -0.2498 H         1 UNK         0.0719 
     91 H91        23.7711   27.6692   -2.0501 H         1 UNK         0.0809 
     92 H92        25.3516   26.9107   -2.1999 H         1 UNK         0.0809 
     93 H93        23.8962   26.0220   -2.6452 H         1 UNK         0.0809 
     94 H94        25.8413   24.9144   -0.7346 H         1 UNK         0.2990 
     95 H95        25.6287   22.3396    0.8920 H         1 UNK         0.0690 
     96 H96        25.1238   20.3577   -0.5720 H         1 UNK         0.0788 
     97 H97        23.9821   21.3381   -1.4913 H         1 UNK         0.0788 
     98 H98        23.6870   20.9982    0.2055 H         1 UNK         0.0788 
     99 H99        27.3098   22.7179   -0.4763 H         1 UNK         0.2993 
    100 H100       28.2023   22.5206   -3.3924 H         1 UNK         0.0949 
    101 H101       27.1951   25.4166   -3.5029 H         1 UNK         0.0767 
    102 H102       28.6166   24.8116   -4.3519 H         1 UNK         0.0767 
    103 H103       27.0231   24.2013   -4.7598 H         1 UNK         0.0767 
    104 H104       29.6569   23.2114   -1.8745 H         1 UNK         0.3013 
    105 H105       27.6760   27.3988   -0.0002 H         1 UNK         0.3121 
    106 H106       28.0882   30.1841   -0.5362 H         1 UNK         0.0774 
    107 H107       29.1478   27.7099   -2.0062 H         1 UNK         0.0815 
    108 H108       27.5789   28.4644   -2.2869 H         1 UNK         0.0815 
    109 H109       29.0561   29.3409   -2.6494 H         1 UNK         0.0815 
    110 H110       30.0212   28.0043    1.2623 H         1 UNK         0.2987 
    111 H111       32.6419   29.0554    0.5192 H         1 UNK         0.0949 
    112 H112       32.4109   26.6812    1.1035 H         1 UNK         0.0806 
    113 H113       33.4349   27.4699    2.2864 H         1 UNK         0.0806 
    114 H114       31.7692   27.0901    2.6939 H         1 UNK         0.0806 
    115 H115       31.4055   31.2619    1.0636 H         1 UNK         0.3010 
    116 H116       31.4130   32.2395    3.7456 H         1 UNK         0.0829 
    117 H117       31.7273   33.7362    1.0801 H         1 UNK         0.0813 
    118 H118       31.3370   34.4837    2.6233 H         1 UNK         0.0813 
    119 H119       30.2000   33.3689    1.8820 H         1 UNK         0.0813 
    120 H120       32.9383   33.3152    4.9265 H         1 UNK         0.3038 
    121 H121       34.8382   33.8818    5.8451 H         1 UNK         0.0769 
    122 H122       35.1825   35.4427    3.9362 H         1 UNK         0.0811 
    123 H123       36.0536   34.1921    3.0499 H         1 UNK         0.0811 
    124 H124       36.7093   34.8277    4.5481 H         1 UNK         0.0811 
    125 H125       35.2537   31.3915    3.3805 H         1 UNK         0.3204 
    126 H126       37.5595   30.1017    4.5332 H         1 UNK         0.0748 
    127 H127       35.4081   29.0605    2.6071 H         1 UNK         0.0771 
    128 H128       36.9203   29.8401    2.1434 H         1 UNK         0.0771 
    129 H129       36.9463   28.2719    2.9333 H         1 UNK         0.0771 
    130 H130       34.1939   30.0308    5.3550 H         1 UNK         0.2980 
    131 H131       33.7860   27.5605    6.4212 H         1 UNK         0.0545 
    132 H132       34.0237   26.4777    8.4461 H         1 UNK         0.3459 
    133 H133       35.0540   27.1021    9.7082 H         1 UNK         0.3459 
    134 H134       32.2852   29.8757    6.2353 H         1 UNK         0.0616 
    135 H135       32.5444   29.8761    7.9438 H         1 UNK         0.0616 
    136 H136       31.4313   27.7818    4.8805 H         1 UNK         0.0634 
    137 H137       30.2155   28.9681    5.2897 H         1 UNK         0.0634 
@<TRIPOS>BOND
     1    1    2 1    
     2    1   72 1    
     3    1   73 1    
     4    1   74 1    
     5    2    3 2    
     6    2    4 am   BACKBONE|DICT|INTERRES
     7    4    5 1    
     8    4   75 1    
     9    5    6 1    
    10    5   35 1    
    11    5   76 1    
    12    6    7 1    
    13    6   77 1    
    14    6   78 1    
    15    7    8 1    
    16    8    9 1    
    17    8   79 1    
    18    8   80 1    
    19    9   10 ar   
    20    9   14 ar   
    21   10   11 ar   
    22   10   81 1    
    23   11   12 ar   
    24   11   71 1    
    25   12   13 ar   
    26   12   82 1    
    27   13   14 ar   
    28   13   15 1    
    29   14   83 1    
    30   15   16 1    
    31   15   84 1    
    32   15   85 1    
    33   16   17 1    
    34   17   18 1    
    35   17   86 1    
    36   17   87 1    
    37   18   19 1    
    38   18   37 1    
    39   18   88 1    
    40   19   20 am   BACKBONE|DICT|INTERRES
    41   19   89 1    
    42   20   21 2    
    43   20   22 1    
    44   22   23 1    
    45   22   24 1    
    46   22   90 1    
    47   23   91 1    
    48   23   92 1    
    49   23   93 1    
    50   24   25 am   BACKBONE|DICT|INTERRES
    51   24   94 1    
    52   25   26 2    
    53   25   27 1    
    54   27   28 1    
    55   27   29 1    
    56   27   95 1    
    57   28   96 1    
    58   28   97 1    
    59   28   98 1    
    60   29   30 am   BACKBONE|DICT|INTERRES
    61   29   99 1    
    62   30   31 2    
    63   30   32 1    
    64   32   33 1    
    65   32   34 1    
    66   32  100 1    
    67   33  101 1    
    68   33  102 1    
    69   33  103 1    
    70   34   35 am   BACKBONE|DICT|INTERRES
    71   34  104 1    
    72   35   36 2    
    73   37   38 2    
    74   37   39 am   BACKBONE|DICT|INTERRES
    75   39   40 1    
    76   39  105 1    
    77   40   41 1    
    78   40   42 1    
    79   40  106 1    
    80   41  107 1    
    81   41  108 1    
    82   41  109 1    
    83   42   43 2    
    84   42   44 am   BACKBONE|DICT|INTERRES
    85   44   45 1    
    86   44  110 1    
    87   45   46 1    
    88   45   47 1    
    89   45  111 1    
    90   46  112 1    
    91   46  113 1    
    92   46  114 1    
    93   47   48 2    
    94   47   49 am   BACKBONE|DICT|INTERRES
    95   49   50 1    
    96   49  115 1    
    97   50   51 1    
    98   50   52 1    
    99   50  116 1    
   100   51  117 1    
   101   51  118 1    
   102   51  119 1    
   103   52   53 2    
   104   52   54 am   BACKBONE|DICT|INTERRES
   105   54   55 1    
   106   54  120 1    
   107   55   56 1    
   108   55   57 1    
   109   55  121 1    
   110   56  122 1    
   111   56  123 1    
   112   56  124 1    
   113   57   58 2    
   114   57   59 am   BACKBONE|DICT|INTERRES
   115   59   60 1    
   116   59  125 1    
   117   60   61 1    
   118   60   62 1    
   119   60  126 1    
   120   61  127 1    
   121   61  128 1    
   122   61  129 1    
   123   62   63 2    
   124   62   64 am   BACKBONE|DICT|INTERRES
   125   64   65 1    
   126   64  130 1    
   127   65   66 1    
   128   65   69 1    
   129   65  131 1    
   130   66   67 am   BACKBONE|DICT|INTERRES
   131   66   68 2    
   132   67  132 1    
   133   67  133 1    
   134   69   70 1    
   135   69  134 1    
   136   69  135 1    
   137   70   71 1    
   138   71  136 1    
   139   71  137 1    
@<TRIPOS>SUBSTRUCTURE
     1 UNK         1 GROUP             0       ****    0 ROOT    
