@<TRIPOS>MOLECULE
3R136
137   139    1
SMALL
USER_CHARGES


@<TRIPOS>ATOM
      1 CA         28.2222   24.8524   -5.0425 C.3       0 UNK        -0.1979 
      2 C          28.2548   24.7721   -3.5243 C.2       0 UNK         0.4864 
      3 O          27.2062   24.8633   -2.8825 O.2       0 UNK        -0.5359 
      4 N          29.4454   24.5991   -2.9338 N.am      1 UNK        -0.4318 
      5 CA         29.6134   24.4595   -1.4852 C.3       1 UNK         0.0824 
      6 C6         31.0918   24.5964   -1.0368 C.3       12 UNK        -0.0944 
      7 S7         31.2108   25.4887    0.5477 S.3       12 UNK        -0.2672 
      8 C8         31.3749   24.1308    1.7462 C.3       12 UNK         0.0333 
      9 C9         30.7536   24.5240    3.0773 C.ar      12 UNK        -0.0807 
     10 C10        31.4404   25.3673    3.9553 C.ar      12 UNK        -0.0894 
     11 C11        30.8564   25.7581    5.1643 C.ar      12 UNK        -0.0804 
     12 C12        29.5785   25.2979    5.4946 C.ar      12 UNK        -0.0824 
     13 C13        28.8860   24.4454    4.6292 C.ar      12 UNK        -0.0762 
     14 C14        29.4824   24.0583    3.4258 C.ar      12 UNK        -0.0782 
     15 C15        27.5025   23.9285    5.0036 C.3       12 UNK         0.0230 
     16 S16        26.1870   24.5877    3.9275 S.3       12 UNK        -0.2608 
     17 C17        26.3007   26.3865    4.2264 C.3       12 UNK        -0.0989 
     18 CA         26.7669   27.1540    2.9603 C.3       5 UNK         0.0716 
     19 N          25.7960   27.0471    1.8614 N.am      5 UNK        -0.4135 
     20 C          26.0007   26.3869    0.7182 C.2       4 UNK         0.5031 
     21 O          27.0416   25.7804    0.4554 O.2       4 UNK        -0.5229 
     22 CA         24.8712   26.4468   -0.3217 C.3       4 UNK         0.0329 
     23 CB         25.0595   27.6634   -1.2423 C.3       4 UNK        -0.2001 
     24 N          24.9256   25.2317   -1.1281 N.am      4 UNK        -0.4303 
     25 C          23.9931   24.2708   -1.1639 C.2       3 UNK         0.5044 
     26 O          22.8576   24.3882   -0.7020 O.2       3 UNK        -0.5152 
     27 CA         24.4419   22.9169   -1.7414 C.3       3 UNK         0.0319 
     28 CB         24.4568   22.9257   -3.2790 C.3       3 UNK        -0.2001 
     29 N          25.7690   22.5910   -1.2090 N.am      3 UNK        -0.4354 
     30 C          25.9531   22.0404    0.0016 C.2       2 UNK         0.4964 
     31 O          25.0600   21.4645    0.6242 O.2       2 UNK        -0.5047 
     32 CA         27.3171   22.2219    0.6898 C.3       2 UNK         0.0288 
     33 CB         28.0479   20.8848    0.9308 C.3       2 UNK        -0.2113 
     34 N          28.1642   23.2476    0.0661 N.am      2 UNK        -0.4145 
     35 C          28.9757   23.1436   -0.9934 C.2       1 UNK         0.5006 
     36 O          29.2135   22.0950   -1.5968 O.2       1 UNK        -0.5103 
     37 C          27.0644   28.6445    3.2326 C.2       5 UNK         0.5055 
     38 O          27.2537   29.0420    4.3828 O.2       5 UNK        -0.5220 
     39 N          27.0798   29.4527    2.1626 N.am      6 UNK        -0.4450 
     40 CA         27.2895   30.9035    2.1934 C.3       6 UNK         0.0367 
     41 CB         26.3878   31.5479    1.1252 C.3       6 UNK        -0.1929 
     42 C          28.7603   31.3072    1.9769 C.2       6 UNK         0.5070 
     43 O          29.0531   32.5031    1.9298 O.2       6 UNK        -0.5237 
     44 N          29.6634   30.3277    1.8300 N.am      7 UNK        -0.4739 
     45 CA         31.0931   30.5006    1.5548 C.3       7 UNK         0.0276 
     46 CB         31.6493   29.1719    1.0087 C.3       7 UNK        -0.1927 
     47 C          31.8867   31.0019    2.7782 C.2       7 UNK         0.5013 
     48 O          32.8345   30.3433    3.2071 O.2       7 UNK        -0.5193 
     49 N          31.5048   32.1688    3.3141 N.am      8 UNK        -0.4253 
     50 CA         32.0557   32.7939    4.5244 C.3       8 UNK         0.0242 
     51 CB         31.3685   34.1490    4.7533 C.3       8 UNK        -0.2000 
     52 C          33.5868   32.9588    4.5344 C.2       8 UNK         0.4948 
     53 O          34.1968   32.8442    5.5974 O.2       8 UNK        -0.5275 
     54 N          34.1828   33.1741    3.3531 N.am      9 UNK        -0.4246 
     55 CA         35.6321   33.2242    3.1432 C.3       9 UNK         0.0261 
     56 CB         35.9186   33.7214    1.7169 C.3       9 UNK        -0.1959 
     57 C          36.3456   31.8813    3.3978 C.2       9 UNK         0.5033 
     58 O          37.5244   31.8947    3.7557 O.2       9 UNK        -0.5390 
     59 N          35.6362   30.7586    3.2148 N.am      10 UNK        -0.4215 
     60 CA         36.1153   29.4133    3.5293 C.3       10 UNK         0.0240 
     61 CB         35.5395   28.4044    2.5200 C.3       10 UNK        -0.1982 
     62 C          35.7374   29.0199    4.9646 C.2       10 UNK         0.4970 
     63 O          36.5625   28.4184    5.6534 O.2       10 UNK        -0.4916 
     64 N          34.5097   29.3558    5.3882 N.am      11 UNK        -0.4279 
     65 CA         33.9918   29.0634    6.7345 C.3       11 UNK         0.1003 
     66 C          34.7160   29.8289    7.8768 C.2       11 UNK         0.5709 
     67 N          35.1491   31.0659    7.6670 N.am      11 UNK        -0.7358 
     68 O          34.8905   29.2885    8.9665 O.2       11 UNK        -0.4999 
     69 C69        32.4557   29.2558    6.8476 C.3       12 UNK        -0.0954 
     70 S70        31.4937   28.4036    5.5552 S.3       12 UNK        -0.2268 
     71 C71        31.6082   26.6791    6.1102 C.3       12 UNK         0.0203 
     72 H72        27.5984   24.0548   -5.4451 H         1 UNK         0.0888 
     73 H73        27.8010   25.8068   -5.3570 H         1 UNK         0.0888 
     74 H74        29.2172   24.7593   -5.4771 H         1 UNK         0.0888 
     75 H75        30.2775   24.4925   -3.4959 H         1 UNK         0.3017 
     76 H76        29.0534   25.2929   -1.0560 H         1 UNK         0.0873 
     77 H77        31.6073   23.6350   -0.9835 H         1 UNK         0.0745 
     78 H78        31.6526   25.1897   -1.7608 H         1 UNK         0.0745 
     79 H79        30.8982   23.2280    1.3620 H         1 UNK         0.0705 
     80 H80        32.4307   23.8903    1.8788 H         1 UNK         0.0705 
     81 H81        32.4220   25.7358    3.6892 H         1 UNK         0.1334 
     82 H82        29.1248   25.6030    6.4278 H         1 UNK         0.1417 
     83 H83        28.9501   23.4001    2.7568 H         1 UNK         0.1562 
     84 H84        27.2647   24.1673    6.0414 H         1 UNK         0.0748 
     85 H85        27.4986   22.8398    4.9343 H         1 UNK         0.0748 
     86 H86        26.9799   26.5635    5.0618 H         1 UNK         0.0940 
     87 H87        25.3241   26.7464    4.5547 H         1 UNK         0.0940 
     88 H88        27.7266   26.7285    2.6574 H         1 UNK         0.0703 
     89 H89        24.9206   27.5330    1.9993 H         1 UNK         0.3081 
     90 H90        23.9127   26.5266    0.1955 H         1 UNK         0.0719 
     91 H91        26.0212   27.6333   -1.7573 H         1 UNK         0.0809 
     92 H92        24.2780   27.7070   -2.0011 H         1 UNK         0.0809 
     93 H93        25.0159   28.5964   -0.6791 H         1 UNK         0.0809 
     94 H94        25.8268   25.0519   -1.5660 H         1 UNK         0.2990 
     95 H95        23.7247   22.1564   -1.4246 H         1 UNK         0.0690 
     96 H96        24.8181   21.9773   -3.6767 H         1 UNK         0.0788 
     97 H97        25.0821   23.7192   -3.6857 H         1 UNK         0.0788 
     98 H98        23.4507   23.0791   -3.6708 H         1 UNK         0.0788 
     99 H99        26.5538   23.0470   -1.6566 H         1 UNK         0.2993 
    100 H100       27.0731   22.6278    1.6722 H         1 UNK         0.0949 
    101 H101       27.4562   20.2343    1.5759 H         1 UNK         0.0767 
    102 H102       28.2207   20.3392    0.0030 H         1 UNK         0.0767 
    103 H103       29.0101   21.0376    1.4195 H         1 UNK         0.0767 
    104 H104       27.9672   24.1953    0.3909 H         1 UNK         0.3013 
    105 H105       26.9376   29.0399    1.2520 H         1 UNK         0.3121 
    106 H106       26.9911   31.2962    3.1678 H         1 UNK         0.0774 
    107 H107       26.6563   31.2234    0.1191 H         1 UNK         0.0815 
    108 H108       26.4673   32.6357    1.1480 H         1 UNK         0.0815 
    109 H109       25.3388   31.3009    1.2897 H         1 UNK         0.0815 
    110 H110       29.3420   29.3761    1.9254 H         1 UNK         0.2987 
    111 H111       31.2037   31.2548    0.7726 H         1 UNK         0.0949 
    112 H112       31.5844   28.3743    1.7507 H         1 UNK         0.0806 
    113 H113       31.1102   28.8466    0.1188 H         1 UNK         0.0806 
    114 H114       32.6994   29.2704    0.7301 H         1 UNK         0.0806 
    115 H115       30.6906   32.6123    2.8959 H         1 UNK         0.3010 
    116 H116       31.7999   32.1401    5.3593 H         1 UNK         0.0829 
    117 H117       30.2901   34.0333    4.8648 H         1 UNK         0.0813 
    118 H118       31.7373   34.6261    5.6625 H         1 UNK         0.0813 
    119 H119       31.5484   34.8373    3.9265 H         1 UNK         0.0813 
    120 H120       33.5982   33.2582    2.5341 H         1 UNK         0.3038 
    121 H121       36.0443   33.9499    3.8478 H         1 UNK         0.0769 
    122 H122       35.5114   33.0458    0.9636 H         1 UNK         0.0811 
    123 H123       36.9924   33.7975    1.5393 H         1 UNK         0.0811 
    124 H124       35.4940   34.7111    1.5477 H         1 UNK         0.0811 
    125 H125       34.6485   30.8309    2.9852 H         1 UNK         0.3204 
    126 H126       37.2039   29.3832    3.4462 H         1 UNK         0.0748 
    127 H127       35.9295   27.4032    2.7077 H         1 UNK         0.0771 
    128 H128       34.4520   28.3428    2.5752 H         1 UNK         0.0771 
    129 H129       35.8076   28.6704    1.4974 H         1 UNK         0.0771 
    130 H130       33.8621   29.7915    4.7385 H         1 UNK         0.2980 
    131 H131       34.1931   28.0060    6.9137 H         1 UNK         0.0545 
    132 H132       35.6228   31.5522    8.4107 H         1 UNK         0.3459 
    133 H133       34.9305   31.5578    6.8051 H         1 UNK         0.3459 
    134 H134       32.0986   28.9130    7.8205 H         1 UNK         0.0616 
    135 H135       32.2068   30.3163    6.7930 H         1 UNK         0.0616 
    136 H136       32.6549   26.3765    6.1552 H         1 UNK         0.0634 
    137 H137       31.2137   26.5965    7.1241 H         1 UNK         0.0634 
@<TRIPOS>BOND
     1    1    2 1    
     2    1   72 1    
     3    1   73 1    
     4    1   74 1    
     5    2    3 2    
     6    2    4 am   BACKBONE|DICT|INTERRES
     7    4    5 1    
     8    4   75 1    
     9    5    6 1    
    10    5   35 1    
    11    5   76 1    
    12    6    7 1    
    13    6   77 1    
    14    6   78 1    
    15    7    8 1    
    16    8    9 1    
    17    8   79 1    
    18    8   80 1    
    19    9   10 ar   
    20    9   14 ar   
    21   10   11 ar   
    22   10   81 1    
    23   11   12 ar   
    24   11   71 1    
    25   12   13 ar   
    26   12   82 1    
    27   13   14 ar   
    28   13   15 1    
    29   14   83 1    
    30   15   16 1    
    31   15   84 1    
    32   15   85 1    
    33   16   17 1    
    34   17   18 1    
    35   17   86 1    
    36   17   87 1    
    37   18   19 1    
    38   18   37 1    
    39   18   88 1    
    40   19   20 am   BACKBONE|DICT|INTERRES
    41   19   89 1    
    42   20   21 2    
    43   20   22 1    
    44   22   23 1    
    45   22   24 1    
    46   22   90 1    
    47   23   91 1    
    48   23   92 1    
    49   23   93 1    
    50   24   25 am   BACKBONE|DICT|INTERRES
    51   24   94 1    
    52   25   26 2    
    53   25   27 1    
    54   27   28 1    
    55   27   29 1    
    56   27   95 1    
    57   28   96 1    
    58   28   97 1    
    59   28   98 1    
    60   29   30 am   BACKBONE|DICT|INTERRES
    61   29   99 1    
    62   30   31 2    
    63   30   32 1    
    64   32   33 1    
    65   32   34 1    
    66   32  100 1    
    67   33  101 1    
    68   33  102 1    
    69   33  103 1    
    70   34   35 am   BACKBONE|DICT|INTERRES
    71   34  104 1    
    72   35   36 2    
    73   37   38 2    
    74   37   39 am   BACKBONE|DICT|INTERRES
    75   39   40 1    
    76   39  105 1    
    77   40   41 1    
    78   40   42 1    
    79   40  106 1    
    80   41  107 1    
    81   41  108 1    
    82   41  109 1    
    83   42   43 2    
    84   42   44 am   BACKBONE|DICT|INTERRES
    85   44   45 1    
    86   44  110 1    
    87   45   46 1    
    88   45   47 1    
    89   45  111 1    
    90   46  112 1    
    91   46  113 1    
    92   46  114 1    
    93   47   48 2    
    94   47   49 am   BACKBONE|DICT|INTERRES
    95   49   50 1    
    96   49  115 1    
    97   50   51 1    
    98   50   52 1    
    99   50  116 1    
   100   51  117 1    
   101   51  118 1    
   102   51  119 1    
   103   52   53 2    
   104   52   54 am   BACKBONE|DICT|INTERRES
   105   54   55 1    
   106   54  120 1    
   107   55   56 1    
   108   55   57 1    
   109   55  121 1    
   110   56  122 1    
   111   56  123 1    
   112   56  124 1    
   113   57   58 2    
   114   57   59 am   BACKBONE|DICT|INTERRES
   115   59   60 1    
   116   59  125 1    
   117   60   61 1    
   118   60   62 1    
   119   60  126 1    
   120   61  127 1    
   121   61  128 1    
   122   61  129 1    
   123   62   63 2    
   124   62   64 am   BACKBONE|DICT|INTERRES
   125   64   65 1    
   126   64  130 1    
   127   65   66 1    
   128   65   69 1    
   129   65  131 1    
   130   66   67 am   BACKBONE|DICT|INTERRES
   131   66   68 2    
   132   67  132 1    
   133   67  133 1    
   134   69   70 1    
   135   69  134 1    
   136   69  135 1    
   137   70   71 1    
   138   71  136 1    
   139   71  137 1    
@<TRIPOS>SUBSTRUCTURE
     1 UNK         1 GROUP             0       ****    0 ROOT    
