@<TRIPOS>MOLECULE
3R136
137   139    1
SMALL
USER_CHARGES


@<TRIPOS>ATOM
      1 CA         29.5380   23.1736   -3.7309 C.3       0 UNK        -0.1979 
      2 C          29.8307   23.8095   -2.3810 C.2       0 UNK         0.4864 
      3 O          29.5682   24.9987   -2.1954 O.2       0 UNK        -0.5359 
      4 N          30.3568   23.0274   -1.4271 N.am      1 UNK        -0.4318 
      5 CA         30.7058   23.4827   -0.0749 C.3       1 UNK         0.0824 
      6 C6         31.5264   22.4194    0.6997 C.3       12 UNK        -0.0944 
      7 S7         30.5654   20.9413    1.2021 S.3       12 UNK        -0.2672 
      8 C8         31.0973   20.6436    2.9233 C.3       12 UNK         0.0333 
      9 C9         31.0366   21.8833    3.8090 C.ar      12 UNK        -0.0807 
     10 C10        32.2255   22.4879    4.2301 C.ar      12 UNK        -0.0894 
     11 C11        32.1968   23.6294    5.0331 C.ar      12 UNK        -0.0804 
     12 C12        30.9683   24.1471    5.4474 C.ar      12 UNK        -0.0824 
     13 C13        29.7700   23.5632    5.0250 C.ar      12 UNK        -0.0762 
     14 C14        29.8092   22.4271    4.2068 C.ar      12 UNK        -0.0782 
     15 C15        28.4391   24.1618    5.4643 C.3       12 UNK         0.0230 
     16 S16        27.8201   25.4243    4.3030 S.3       12 UNK        -0.2608 
     17 C17        29.0214   26.7765    4.5297 C.3       12 UNK        -0.0989 
     18 CA         28.8430   27.9981    3.5985 C.3       5 UNK         0.0716 
     19 N          29.1537   27.7207    2.1924 N.am      5 UNK        -0.4135 
     20 C          29.4732   28.6879    1.3193 C.2       4 UNK         0.5031 
     21 O          29.5309   29.8786    1.6237 O.2       4 UNK        -0.5229 
     22 CA         29.7417   28.2876   -0.1394 C.3       4 UNK         0.0329 
     23 CB         31.1307   27.6480   -0.2903 C.3       4 UNK        -0.2001 
     24 N          28.7071   27.4098   -0.6881 N.am      4 UNK        -0.4303 
     25 C          27.4152   27.7514   -0.8124 C.2       3 UNK         0.5044 
     26 O          26.9636   28.8551   -0.5100 O.2       3 UNK        -0.5152 
     27 CA         26.4536   26.6642   -1.3139 C.3       3 UNK         0.0319 
     28 CB         26.4895   26.5528   -2.8463 C.3       3 UNK        -0.2001 
     29 N          26.7447   25.3655   -0.7070 N.am      3 UNK        -0.4354 
     30 C          26.5417   25.0834    0.5884 C.2       2 UNK         0.4964 
     31 O          26.0257   25.8657    1.3854 O.2       2 UNK        -0.5047 
     32 CA         27.0291   23.7113    1.0801 C.3       2 UNK         0.0288 
     33 CB         25.9983   22.6181    0.7575 C.3       2 UNK        -0.2113 
     34 N          28.3280   23.3385    0.5206 N.am      2 UNK        -0.4145 
     35 C          29.4811   23.9993    0.7149 C.2       1 UNK         0.5006 
     36 O          29.5907   25.0027    1.4193 O.2       1 UNK        -0.5103 
     37 C          27.5046   28.7422    3.7841 C.2       5 UNK         0.5055 
     38 O          27.4328   29.6136    4.6517 O.2       5 UNK        -0.5220 
     39 N          26.5002   28.4636    2.9366 N.am      6 UNK        -0.4450 
     40 CA         25.2422   29.2200    2.8792 C.3       6 UNK         0.0367 
     41 CB         24.2455   28.5164    1.9457 C.3       6 UNK        -0.1929 
     42 C          25.4413   30.6868    2.4520 C.2       6 UNK         0.5070 
     43 O          24.7660   31.5692    2.9816 O.2       6 UNK        -0.5237 
     44 N          26.3898   30.9266    1.5366 N.am      7 UNK        -0.4739 
     45 CA         26.8272   32.2559    1.0986 C.3       7 UNK         0.0276 
     46 CB         27.4772   32.1270   -0.2900 C.3       7 UNK        -0.1927 
     47 C          27.7910   32.9500    2.0838 C.2       7 UNK         0.5013 
     48 O          28.1741   34.0923    1.8278 O.2       7 UNK        -0.5193 
     49 N          28.1776   32.2594    3.1686 N.am      8 UNK        -0.4253 
     50 CA         29.1426   32.6666    4.1977 C.3       8 UNK         0.0242 
     51 CB         28.6390   33.8980    4.9810 C.3       8 UNK        -0.2000 
     52 C          30.5774   32.8376    3.6566 C.2       8 UNK         0.4948 
     53 O          31.3321   33.6665    4.1675 O.2       8 UNK        -0.5275 
     54 N          30.9405   32.0267    2.6545 N.am      9 UNK        -0.4246 
     55 CA         32.2598   31.9748    2.0206 C.3       9 UNK         0.0261 
     56 CB         32.0679   31.9497    0.4924 C.3       9 UNK        -0.1959 
     57 C          33.0838   30.7664    2.5097 C.2       9 UNK         0.5033 
     58 O          34.0344   30.3685    1.8335 O.2       9 UNK        -0.5390 
     59 N          32.7116   30.1926    3.6632 N.am      10 UNK        -0.4215 
     60 CA         33.4130   29.0904    4.3244 C.3       10 UNK         0.0240 
     61 CB         32.5463   28.5854    5.4912 C.3       10 UNK        -0.1982 
     62 C          34.8010   29.5405    4.8361 C.2       10 UNK         0.4970 
     63 O          34.8882   30.6357    5.3932 O.2       10 UNK        -0.4916 
     64 N          35.8717   28.7480    4.7019 N.am      11 UNK        -0.4279 
     65 CA         35.9862   27.4443    4.0365 C.3       11 UNK         0.1003 
     66 C          37.4503   27.1922    3.5871 C.2       11 UNK         0.5709 
     67 N          37.6832   26.1554    2.7942 N.am      11 UNK        -0.7358 
     68 O          38.3758   27.9162    3.9540 O.2       11 UNK        -0.4999 
     69 C69        35.4211   26.2799    4.9083 C.3       12 UNK        -0.0954 
     70 S70        34.0523   25.4126    4.0824 S.3       12 UNK        -0.2268 
     71 C71        33.4907   24.3228    5.4244 C.3       12 UNK         0.0203 
     72 H72        28.4788   23.2685   -3.9681 H         1 UNK         0.0888 
     73 H73        30.1082   23.6764   -4.5114 H         1 UNK         0.0888 
     74 H74        29.7974   22.1153   -3.7483 H         1 UNK         0.0888 
     75 H75        30.5458   22.0544   -1.6241 H         1 UNK         0.3017 
     76 H76        31.3617   24.3453   -0.2103 H         1 UNK         0.0873 
     77 H77        31.9821   22.8931    1.5676 H         1 UNK         0.0745 
     78 H78        32.3668   22.0839    0.0902 H         1 UNK         0.0745 
     79 H79        32.1089   20.2350    2.9059 H         1 UNK         0.0705 
     80 H80        30.4663   19.8653    3.3546 H         1 UNK         0.0705 
     81 H81        33.1780   22.0866    3.9113 H         1 UNK         0.1334 
     82 H82        30.9449   25.0254    6.0778 H         1 UNK         0.1417 
     83 H83        28.8874   21.9710    3.8723 H         1 UNK         0.1562 
     84 H84        28.5296   24.5992    6.4598 H         1 UNK         0.0748 
     85 H85        27.6917   23.3716    5.5494 H         1 UNK         0.0748 
     86 H86        30.0217   26.3783    4.3647 H         1 UNK         0.0940 
     87 H87        28.9900   27.0939    5.5737 H         1 UNK         0.0940 
     88 H88        29.6018   28.7119    3.9269 H         1 UNK         0.0703 
     89 H89        29.1570   26.7446    1.8984 H         1 UNK         0.3081 
     90 H90        29.7321   29.2029   -0.7349 H         1 UNK         0.0719 
     91 H91        31.3383   27.3892   -1.3288 H         1 UNK         0.0809 
     92 H92        31.9115   28.3366    0.0363 H         1 UNK         0.0809 
     93 H93        31.2305   26.7425    0.3068 H         1 UNK         0.0809 
     94 H94        28.9994   26.4909   -1.0087 H         1 UNK         0.2990 
     95 H95        25.4418   26.9542   -1.0222 H         1 UNK         0.0690 
     96 H96        26.2340   27.5070   -3.3092 H         1 UNK         0.0788 
     97 H97        25.7718   25.8160   -3.2073 H         1 UNK         0.0788 
     98 H98        27.4758   26.2687   -3.2135 H         1 UNK         0.0788 
     99 H99        27.2205   24.6881   -1.2848 H         1 UNK         0.2993 
    100 H100       27.1386   23.7601    2.1630 H         1 UNK         0.0949 
    101 H101       25.8623   22.4914   -0.3173 H         1 UNK         0.0767 
    102 H102       26.2979   21.6563    1.1746 H         1 UNK         0.0767 
    103 H103       25.0246   22.8649    1.1833 H         1 UNK         0.0767 
    104 H104       28.3528   22.5178   -0.0665 H         1 UNK         0.3013 
    105 H105       26.6023   27.6932    2.2833 H         1 UNK         0.3121 
    106 H106       24.8154   29.2271    3.8844 H         1 UNK         0.0774 
    107 H107       24.6309   28.4385    0.9288 H         1 UNK         0.0815 
    108 H108       23.3027   29.0627    1.8970 H         1 UNK         0.0815 
    109 H109       24.0180   27.5097    2.2961 H         1 UNK         0.0815 
    110 H110       26.8516   30.1360    1.0967 H         1 UNK         0.2987 
    111 H111       25.9486   32.8978    1.0050 H         1 UNK         0.0949 
    112 H112       28.3736   31.5066   -0.2580 H         1 UNK         0.0806 
    113 H113       26.7897   31.6827   -1.0099 H         1 UNK         0.0806 
    114 H114       27.7692   33.1023   -0.6814 H         1 UNK         0.0806 
    115 H115       27.8021   31.3253    3.2786 H         1 UNK         0.3010 
    116 H116       29.1903   31.8344    4.9015 H         1 UNK         0.0829 
    117 H117       27.6280   33.7421    5.3572 H         1 UNK         0.0813 
    118 H118       29.2761   34.1003    5.8428 H         1 UNK         0.0813 
    119 H119       28.6339   34.7976    4.3649 H         1 UNK         0.0813 
    120 H120       30.2692   31.3391    2.3084 H         1 UNK         0.3038 
    121 H121       32.8303   32.8707    2.2732 H         1 UNK         0.0769 
    122 H122       31.5660   31.0391    0.1640 H         1 UNK         0.0811 
    123 H123       33.0261   31.9999   -0.0260 H         1 UNK         0.0811 
    124 H124       31.4736   32.7988    0.1545 H         1 UNK         0.0811 
    125 H125       31.9500   30.6156    4.1703 H         1 UNK         0.3204 
    126 H126       33.5014   28.2907    3.5918 H         1 UNK         0.0748 
    127 H127       33.0282   27.7608    6.0154 H         1 UNK         0.0771 
    128 H128       32.3591   29.3696    6.2259 H         1 UNK         0.0771 
    129 H129       31.5847   28.2164    5.1394 H         1 UNK         0.0771 
    130 H130       36.7666   29.0942    5.0219 H         1 UNK         0.2980 
    131 H131       35.4433   27.5199    3.0937 H         1 UNK         0.0545 
    132 H132       38.6270   25.9701    2.4924 H         1 UNK         0.3459 
    133 H133       36.9326   25.5505    2.4985 H         1 UNK         0.3459 
    134 H134       36.1840   25.5387    5.1553 H         1 UNK         0.0616 
    135 H135       35.0672   26.6466    5.8724 H         1 UNK         0.0616 
    136 H136       33.3473   24.9068    6.3349 H         1 UNK         0.0634 
    137 H137       34.2640   23.5849    5.6431 H         1 UNK         0.0634 
@<TRIPOS>BOND
     1    1    2 1    
     2    1   72 1    
     3    1   73 1    
     4    1   74 1    
     5    2    3 2    
     6    2    4 am   BACKBONE|DICT|INTERRES
     7    4    5 1    
     8    4   75 1    
     9    5    6 1    
    10    5   35 1    
    11    5   76 1    
    12    6    7 1    
    13    6   77 1    
    14    6   78 1    
    15    7    8 1    
    16    8    9 1    
    17    8   79 1    
    18    8   80 1    
    19    9   10 ar   
    20    9   14 ar   
    21   10   11 ar   
    22   10   81 1    
    23   11   12 ar   
    24   11   71 1    
    25   12   13 ar   
    26   12   82 1    
    27   13   14 ar   
    28   13   15 1    
    29   14   83 1    
    30   15   16 1    
    31   15   84 1    
    32   15   85 1    
    33   16   17 1    
    34   17   18 1    
    35   17   86 1    
    36   17   87 1    
    37   18   19 1    
    38   18   37 1    
    39   18   88 1    
    40   19   20 am   BACKBONE|DICT|INTERRES
    41   19   89 1    
    42   20   21 2    
    43   20   22 1    
    44   22   23 1    
    45   22   24 1    
    46   22   90 1    
    47   23   91 1    
    48   23   92 1    
    49   23   93 1    
    50   24   25 am   BACKBONE|DICT|INTERRES
    51   24   94 1    
    52   25   26 2    
    53   25   27 1    
    54   27   28 1    
    55   27   29 1    
    56   27   95 1    
    57   28   96 1    
    58   28   97 1    
    59   28   98 1    
    60   29   30 am   BACKBONE|DICT|INTERRES
    61   29   99 1    
    62   30   31 2    
    63   30   32 1    
    64   32   33 1    
    65   32   34 1    
    66   32  100 1    
    67   33  101 1    
    68   33  102 1    
    69   33  103 1    
    70   34   35 am   BACKBONE|DICT|INTERRES
    71   34  104 1    
    72   35   36 2    
    73   37   38 2    
    74   37   39 am   BACKBONE|DICT|INTERRES
    75   39   40 1    
    76   39  105 1    
    77   40   41 1    
    78   40   42 1    
    79   40  106 1    
    80   41  107 1    
    81   41  108 1    
    82   41  109 1    
    83   42   43 2    
    84   42   44 am   BACKBONE|DICT|INTERRES
    85   44   45 1    
    86   44  110 1    
    87   45   46 1    
    88   45   47 1    
    89   45  111 1    
    90   46  112 1    
    91   46  113 1    
    92   46  114 1    
    93   47   48 2    
    94   47   49 am   BACKBONE|DICT|INTERRES
    95   49   50 1    
    96   49  115 1    
    97   50   51 1    
    98   50   52 1    
    99   50  116 1    
   100   51  117 1    
   101   51  118 1    
   102   51  119 1    
   103   52   53 2    
   104   52   54 am   BACKBONE|DICT|INTERRES
   105   54   55 1    
   106   54  120 1    
   107   55   56 1    
   108   55   57 1    
   109   55  121 1    
   110   56  122 1    
   111   56  123 1    
   112   56  124 1    
   113   57   58 2    
   114   57   59 am   BACKBONE|DICT|INTERRES
   115   59   60 1    
   116   59  125 1    
   117   60   61 1    
   118   60   62 1    
   119   60  126 1    
   120   61  127 1    
   121   61  128 1    
   122   61  129 1    
   123   62   63 2    
   124   62   64 am   BACKBONE|DICT|INTERRES
   125   64   65 1    
   126   64  130 1    
   127   65   66 1    
   128   65   69 1    
   129   65  131 1    
   130   66   67 am   BACKBONE|DICT|INTERRES
   131   66   68 2    
   132   67  132 1    
   133   67  133 1    
   134   69   70 1    
   135   69  134 1    
   136   69  135 1    
   137   70   71 1    
   138   71  136 1    
   139   71  137 1    
@<TRIPOS>SUBSTRUCTURE
     1 UNK         1 GROUP             0       ****    0 ROOT    
