@<TRIPOS>MOLECULE
3R136
137   139    1
SMALL
USER_CHARGES


@<TRIPOS>ATOM
      1 CA         29.7469   20.1549   -2.6393 C.3       0 UNK        -0.1979 
      2 C          29.7275   21.3093   -1.6486 C.2       0 UNK         0.4864 
      3 O          28.9306   22.2352   -1.8051 O.2       0 UNK        -0.5359 
      4 N          30.6034   21.2643   -0.6369 N.am      1 UNK        -0.4318 
      5 CA         30.6988   22.2606    0.4328 C.3       1 UNK         0.0824 
      6 C6         32.0410   22.1523    1.2025 C.3       12 UNK        -0.0944 
      7 S7         33.4688   22.5570    0.1334 S.3       12 UNK        -0.2672 
      8 C8         33.8800   24.2639    0.6377 C.3       12 UNK         0.0333 
      9 C9         32.6573   25.1695    0.6278 C.ar      12 UNK        -0.0807 
     10 C10        32.1068   25.6105    1.8335 C.ar      12 UNK        -0.0894 
     11 C11        30.9300   26.3588    1.8403 C.ar      12 UNK        -0.0804 
     12 C12        30.3096   26.6717    0.6276 C.ar      12 UNK        -0.0824 
     13 C13        30.8425   26.2355   -0.5913 C.ar      12 UNK        -0.0762 
     14 C14        32.0355   25.5048   -0.5792 C.ar      12 UNK        -0.0782 
     15 C15        30.1202   26.4401   -1.9262 C.3       12 UNK         0.0230 
     16 S16        29.1414   27.9743   -2.0768 S.3       12 UNK        -0.2608 
     17 C17        27.5069   27.4832   -1.4143 C.3       12 UNK        -0.0989 
     18 CA         26.6172   28.6374   -0.8500 C.3       5 UNK         0.0716 
     19 N          25.5806   28.1672    0.0645 N.am      5 UNK        -0.4135 
     20 C          24.5852   27.3196   -0.2049 C.2       4 UNK         0.5031 
     21 O          24.3910   26.8224   -1.3156 O.2       4 UNK        -0.5229 
     22 CA         23.6637   26.9608    0.9832 C.3       4 UNK         0.0329 
     23 CB         22.5785   25.9359    0.6030 C.3       4 UNK        -0.2001 
     24 N          24.4170   26.4453    2.1322 N.am      4 UNK        -0.4303 
     25 C          25.1696   27.1734    2.9695 C.2       3 UNK         0.5044 
     26 O          25.2651   28.3995    2.9021 O.2       3 UNK        -0.5152 
     27 CA         26.0072   26.4122    4.0136 C.3       3 UNK         0.0319 
     28 CB         25.2616   26.3432    5.3552 C.3       3 UNK        -0.2001 
     29 N          26.4064   25.0586    3.6057 N.am      3 UNK        -0.4354 
     30 C          27.1552   24.7689    2.5324 C.2       2 UNK         0.4964 
     31 O          27.5508   25.6105    1.7233 O.2       2 UNK        -0.5047 
     32 CA         27.4892   23.2916    2.3082 C.3       2 UNK         0.0288 
     33 CB         26.3206   22.5751    1.6043 C.3       2 UNK        -0.2113 
     34 N          28.6972   23.2067    1.4919 N.am      2 UNK        -0.4145 
     35 C          29.4901   22.1348    1.3798 C.2       1 UNK         0.5006 
     36 O          29.3011   21.0733    1.9800 O.2       1 UNK        -0.5103 
     37 C          27.3870   29.7432   -0.1061 C.2       5 UNK         0.5055 
     38 O          27.4353   30.8777   -0.5816 O.2       5 UNK        -0.5220 
     39 N          27.9491   29.3849    1.0598 N.am      6 UNK        -0.4450 
     40 CA         28.7077   30.2298    1.9947 C.3       6 UNK         0.0367 
     41 CB         27.8097   31.3395    2.5790 C.3       6 UNK        -0.1929 
     42 C          30.0444   30.7961    1.4598 C.2       6 UNK         0.5070 
     43 O          30.6534   31.6246    2.1389 O.2       6 UNK        -0.5237 
     44 N          30.5001   30.3510    0.2784 N.am      7 UNK        -0.4739 
     45 CA         31.6425   30.9185   -0.4518 C.3       7 UNK         0.0276 
     46 CB         31.7379   30.2775   -1.8443 C.3       7 UNK        -0.1927 
     47 C          33.0015   30.8249    0.2612 C.2       7 UNK         0.5013 
     48 O          33.8634   31.6669    0.0052 O.2       7 UNK        -0.5193 
     49 N          33.1779   29.8273    1.1388 N.am      8 UNK        -0.4253 
     50 CA         34.4007   29.6485    1.9280 C.3       8 UNK         0.0242 
     51 CB         34.5529   28.1706    2.3258 C.3       8 UNK        -0.2000 
     52 C          34.4842   30.5758    3.1570 C.2       8 UNK         0.4948 
     53 O          35.5097   30.5521    3.8391 O.2       8 UNK        -0.5275 
     54 N          33.4278   31.3580    3.4413 N.am      9 UNK        -0.4246 
     55 CA         33.2832   32.3749    4.4989 C.3       9 UNK         0.0261 
     56 CB         34.3201   33.5034    4.3397 C.3       9 UNK        -0.1959 
     57 C          33.2752   31.8327    5.9410 C.2       9 UNK         0.5033 
     58 O          32.4935   32.3161    6.7602 O.2       9 UNK        -0.5390 
     59 N          34.0950   30.8135    6.2222 N.am      10 UNK        -0.4215 
     60 CA         34.1566   30.0624    7.4821 C.3       10 UNK         0.0240 
     61 CB         35.4812   29.2805    7.5182 C.3       10 UNK        -0.1982 
     62 C          32.9548   29.1186    7.7082 C.2       10 UNK         0.4970 
     63 O          32.9148   28.4275    8.7268 O.2       10 UNK        -0.4916 
     64 N          32.0153   29.0941    6.7559 N.am      11 UNK        -0.4279 
     65 CA         30.7888   28.2867    6.7246 C.3       11 UNK         0.1003 
     66 C          29.7967   28.5322    7.8988 C.2       11 UNK         0.5709 
     67 N          29.8538   29.6647    8.5901 N.am      11 UNK        -0.7358 
     68 O          28.9601   27.6784    8.1823 O.2       11 UNK        -0.4999 
     69 C69        30.0578   28.4661    5.3682 C.3       12 UNK        -0.0954 
     70 S70        31.1365   28.1692    3.9245 S.3       12 UNK        -0.2268 
     71 C71        30.2925   26.7589    3.1620 C.3       12 UNK         0.0203 
     72 H72        29.9582   20.5250   -3.6422 H         1 UNK         0.0888 
     73 H73        28.7769   19.6590   -2.6557 H         1 UNK         0.0888 
     74 H74        30.5033   19.4124   -2.3858 H         1 UNK         0.0888 
     75 H75        31.2287   20.4762   -0.5530 H         1 UNK         0.3017 
     76 H76        30.6509   23.2446   -0.0339 H         1 UNK         0.0873 
     77 H77        32.0481   22.8061    2.0759 H         1 UNK         0.0745 
     78 H78        32.1783   21.1414    1.5907 H         1 UNK         0.0745 
     79 H79        34.3372   24.2404    1.6282 H         1 UNK         0.0705 
     80 H80        34.6351   24.6653   -0.0396 H         1 UNK         0.0705 
     81 H81        32.5742   25.3445    2.7719 H         1 UNK         0.1334 
     82 H82        29.3827   27.2155    0.6461 H         1 UNK         0.1417 
     83 H83        32.4510   25.1354   -1.5072 H         1 UNK         0.1562 
     84 H84        29.4766   25.5797   -2.1155 H         1 UNK         0.0748 
     85 H85        30.8547   26.4516   -2.7329 H         1 UNK         0.0748 
     86 H86        27.6546   26.7180   -0.6528 H         1 UNK         0.0940 
     87 H87        26.9677   26.9754   -2.2152 H         1 UNK         0.0940 
     88 H88        26.1154   29.1164   -1.6933 H         1 UNK         0.0703 
     89 H89        25.6231   28.5363    1.0117 H         1 UNK         0.3081 
     90 H90        23.1592   27.8809    1.2853 H         1 UNK         0.0719 
     91 H91        23.0128   24.9873    0.2850 H         1 UNK         0.0809 
     92 H92        21.9100   25.7358    1.4406 H         1 UNK         0.0809 
     93 H93        21.9627   26.3047   -0.2182 H         1 UNK         0.0809 
     94 H94        24.4347   25.4423    2.2417 H         1 UNK         0.2990 
     95 H95        26.9227   26.9872    4.1664 H         1 UNK         0.0690 
     96 H96        25.8874   25.9096    6.1355 H         1 UNK         0.0788 
     97 H97        24.3512   25.7469    5.2820 H         1 UNK         0.0788 
     98 H98        24.9725   27.3396    5.6930 H         1 UNK         0.0788 
     99 H99        26.1089   24.3036    4.2076 H         1 UNK         0.2993 
    100 H100       27.6819   22.8263    3.2773 H         1 UNK         0.0949 
    101 H101       26.1148   23.0120    0.6259 H         1 UNK         0.0767 
    102 H102       26.5324   21.5159    1.4571 H         1 UNK         0.0767 
    103 H103       25.4044   22.6397    2.1925 H         1 UNK         0.0767 
    104 H104       28.9181   24.0632    0.9973 H         1 UNK         0.3013 
    105 H105       27.8360   28.4236    1.3513 H         1 UNK         0.3121 
    106 H106       28.9690   29.5763    2.8234 H         1 UNK         0.0774 
    107 H107       26.8868   30.9279    2.9880 H         1 UNK         0.0815 
    108 H108       28.3141   31.8653    3.3906 H         1 UNK         0.0815 
    109 H109       27.5434   32.0835    1.8281 H         1 UNK         0.0815 
    110 H110       29.9480   29.6658   -0.2183 H         1 UNK         0.2987 
    111 H111       31.4348   31.9822   -0.5868 H         1 UNK         0.0949 
    112 H112       30.8304   30.4487   -2.4232 H         1 UNK         0.0806 
    113 H113       32.5649   30.7015   -2.4156 H         1 UNK         0.0806 
    114 H114       31.9055   29.2017   -1.7810 H         1 UNK         0.0806 
    115 H115       32.4200   29.1782    1.2994 H         1 UNK         0.3010 
    116 H116       35.2548   29.8987    1.2950 H         1 UNK         0.0829 
    117 H117       34.5063   27.5177    1.4542 H         1 UNK         0.0813 
    118 H118       35.5156   27.9951    2.8073 H         1 UNK         0.0813 
    119 H119       33.7838   27.8520    3.0261 H         1 UNK         0.0813 
    120 H120       32.6137   31.2739    2.8399 H         1 UNK         0.3038 
    121 H121       32.2982   32.8152    4.3338 H         1 UNK         0.0769 
    122 H122       35.3388   33.1501    4.5021 H         1 UNK         0.0811 
    123 H123       34.1373   34.3031    5.0587 H         1 UNK         0.0811 
    124 H124       34.2733   33.9458    3.3445 H         1 UNK         0.0811 
    125 H125       34.7229   30.5199    5.4745 H         1 UNK         0.3204 
    126 H126       34.1584   30.7797    8.3053 H         1 UNK         0.0748 
    127 H127       35.5997   28.7469    8.4623 H         1 UNK         0.0771 
    128 H128       35.5341   28.5428    6.7163 H         1 UNK         0.0771 
    129 H129       36.3379   29.9472    7.4170 H         1 UNK         0.0771 
    130 H130       32.1506   29.6900    5.9545 H         1 UNK         0.2980 
    131 H131       31.1022   27.2442    6.8016 H         1 UNK         0.0545 
    132 H132       29.2086   29.8133    9.3496 H         1 UNK         0.3459 
    133 H133       30.5349   30.3706    8.3583 H         1 UNK         0.3459 
    134 H134       29.1907   27.8050    5.3158 H         1 UNK         0.0616 
    135 H135       29.6669   29.4819    5.2818 H         1 UNK         0.0616 
    136 H136       30.3039   25.9120    3.8497 H         1 UNK         0.0634 
    137 H137       29.2470   27.0260    3.0149 H         1 UNK         0.0634 
@<TRIPOS>BOND
     1    1    2 1    
     2    1   72 1    
     3    1   73 1    
     4    1   74 1    
     5    2    3 2    
     6    2    4 am   BACKBONE|DICT|INTERRES
     7    4    5 1    
     8    4   75 1    
     9    5    6 1    
    10    5   35 1    
    11    5   76 1    
    12    6    7 1    
    13    6   77 1    
    14    6   78 1    
    15    7    8 1    
    16    8    9 1    
    17    8   79 1    
    18    8   80 1    
    19    9   10 ar   
    20    9   14 ar   
    21   10   11 ar   
    22   10   81 1    
    23   11   12 ar   
    24   11   71 1    
    25   12   13 ar   
    26   12   82 1    
    27   13   14 ar   
    28   13   15 1    
    29   14   83 1    
    30   15   16 1    
    31   15   84 1    
    32   15   85 1    
    33   16   17 1    
    34   17   18 1    
    35   17   86 1    
    36   17   87 1    
    37   18   19 1    
    38   18   37 1    
    39   18   88 1    
    40   19   20 am   BACKBONE|DICT|INTERRES
    41   19   89 1    
    42   20   21 2    
    43   20   22 1    
    44   22   23 1    
    45   22   24 1    
    46   22   90 1    
    47   23   91 1    
    48   23   92 1    
    49   23   93 1    
    50   24   25 am   BACKBONE|DICT|INTERRES
    51   24   94 1    
    52   25   26 2    
    53   25   27 1    
    54   27   28 1    
    55   27   29 1    
    56   27   95 1    
    57   28   96 1    
    58   28   97 1    
    59   28   98 1    
    60   29   30 am   BACKBONE|DICT|INTERRES
    61   29   99 1    
    62   30   31 2    
    63   30   32 1    
    64   32   33 1    
    65   32   34 1    
    66   32  100 1    
    67   33  101 1    
    68   33  102 1    
    69   33  103 1    
    70   34   35 am   BACKBONE|DICT|INTERRES
    71   34  104 1    
    72   35   36 2    
    73   37   38 2    
    74   37   39 am   BACKBONE|DICT|INTERRES
    75   39   40 1    
    76   39  105 1    
    77   40   41 1    
    78   40   42 1    
    79   40  106 1    
    80   41  107 1    
    81   41  108 1    
    82   41  109 1    
    83   42   43 2    
    84   42   44 am   BACKBONE|DICT|INTERRES
    85   44   45 1    
    86   44  110 1    
    87   45   46 1    
    88   45   47 1    
    89   45  111 1    
    90   46  112 1    
    91   46  113 1    
    92   46  114 1    
    93   47   48 2    
    94   47   49 am   BACKBONE|DICT|INTERRES
    95   49   50 1    
    96   49  115 1    
    97   50   51 1    
    98   50   52 1    
    99   50  116 1    
   100   51  117 1    
   101   51  118 1    
   102   51  119 1    
   103   52   53 2    
   104   52   54 am   BACKBONE|DICT|INTERRES
   105   54   55 1    
   106   54  120 1    
   107   55   56 1    
   108   55   57 1    
   109   55  121 1    
   110   56  122 1    
   111   56  123 1    
   112   56  124 1    
   113   57   58 2    
   114   57   59 am   BACKBONE|DICT|INTERRES
   115   59   60 1    
   116   59  125 1    
   117   60   61 1    
   118   60   62 1    
   119   60  126 1    
   120   61  127 1    
   121   61  128 1    
   122   61  129 1    
   123   62   63 2    
   124   62   64 am   BACKBONE|DICT|INTERRES
   125   64   65 1    
   126   64  130 1    
   127   65   66 1    
   128   65   69 1    
   129   65  131 1    
   130   66   67 am   BACKBONE|DICT|INTERRES
   131   66   68 2    
   132   67  132 1    
   133   67  133 1    
   134   69   70 1    
   135   69  134 1    
   136   69  135 1    
   137   70   71 1    
   138   71  136 1    
   139   71  137 1    
@<TRIPOS>SUBSTRUCTURE
     1 UNK         1 GROUP             0       ****    0 ROOT    
