@<TRIPOS>MOLECULE
3R136
137   139    1
SMALL
USER_CHARGES


@<TRIPOS>ATOM
      1 CA         27.4408   18.9594    1.9870 C.3       0 UNK        -0.1979 
      2 C          27.1452   20.1493    1.0859 C.2       0 UNK         0.4864 
      3 O          26.1223   20.1556    0.4001 O.2       0 UNK        -0.5359 
      4 N          28.0385   21.1473    1.0788 N.am      1 UNK        -0.4318 
      5 CA         27.9124   22.4032    0.3319 C.3       1 UNK         0.0824 
      6 C6         29.2504   23.1915    0.2688 C.3       12 UNK        -0.0944 
      7 S7         30.1097   23.3228    1.8833 S.3       12 UNK        -0.2672 
      8 C8         31.8255   22.8934    1.4521 C.3       12 UNK         0.0333 
      9 C9         32.6141   24.1434    1.1001 C.ar      12 UNK        -0.0807 
     10 C10        33.4624   24.7247    2.0466 C.ar      12 UNK        -0.0894 
     11 C11        34.1512   25.9057    1.7555 C.ar      12 UNK        -0.0804 
     12 C12        33.9890   26.5013    0.4994 C.ar      12 UNK        -0.0824 
     13 C13        33.1535   25.9198   -0.4614 C.ar      12 UNK        -0.0762 
     14 C14        32.4805   24.7325   -0.1594 C.ar      12 UNK        -0.0782 
     15 C15        32.9954   26.5628   -1.8323 C.3       12 UNK         0.0230 
     16 S16        31.7676   27.9082   -1.8256 S.3       12 UNK        -0.2608 
     17 C17        30.1806   26.9975   -1.8117 C.3       12 UNK        -0.0989 
     18 CA         29.0511   27.7723   -1.0702 C.3       5 UNK         0.0716 
     19 N          27.7368   27.1473   -1.1851 N.am      5 UNK        -0.4135 
     20 C          27.0160   27.1069   -2.3148 C.2       4 UNK         0.5031 
     21 O          27.4105   27.5580   -3.3910 O.2       4 UNK        -0.5229 
     22 CA         25.6202   26.4588   -2.2606 C.3       4 UNK         0.0329 
     23 CB         25.6771   25.0245   -2.8106 C.3       4 UNK        -0.2001 
     24 N          25.0284   26.4576   -0.9197 N.am      4 UNK        -0.4303 
     25 C          24.5616   27.5597   -0.3102 C.2       3 UNK         0.5044 
     26 O          24.5350   28.6678   -0.8475 O.2       3 UNK        -0.5152 
     27 CA         24.0370   27.4322    1.1349 C.3       3 UNK         0.0319 
     28 CB         22.5019   27.5215    1.1574 C.3       3 UNK        -0.2001 
     29 N          24.4498   26.2202    1.8487 N.am      3 UNK        -0.4354 
     30 C          25.7118   25.8635    2.1215 C.2       2 UNK         0.4964 
     31 O          26.6945   26.5130    1.7614 O.2       2 UNK        -0.5047 
     32 CA         25.9248   24.5328    2.8732 C.3       2 UNK         0.0288 
     33 CB         24.6211   23.7722    3.2101 C.3       2 UNK        -0.2113 
     34 N          26.8469   23.6515    2.1496 N.am      2 UNK        -0.4145 
     35 C          26.7571   23.2732    0.8651 C.2       1 UNK         0.5006 
     36 O          25.8274   23.5820    0.1167 O.2       1 UNK        -0.5103 
     37 C          29.3219   28.0460    0.4171 C.2       5 UNK         0.5055 
     38 O          28.8887   29.0840    0.9224 O.2       5 UNK        -0.5220 
     39 N          30.0953   27.1581    1.0647 N.am      6 UNK        -0.4450 
     40 CA         30.6435   27.2815    2.4229 C.3       6 UNK         0.0367 
     41 CB         29.5261   27.1377    3.4762 C.3       6 UNK        -0.1929 
     42 C          31.4853   28.5585    2.6265 C.2       6 UNK         0.5070 
     43 O          31.5806   29.0506    3.7505 O.2       6 UNK        -0.5237 
     44 N          32.0304   29.1106    1.5291 N.am      7 UNK        -0.4739 
     45 CA         32.7020   30.4123    1.4290 C.3       7 UNK         0.0276 
     46 CB         34.1004   30.3409    2.0770 C.3       7 UNK        -0.1927 
     47 C          31.8454   31.5754    1.9772 C.2       7 UNK         0.5013 
     48 O          32.3847   32.4830    2.6087 O.2       7 UNK        -0.5193 
     49 N          30.5168   31.4974    1.7872 N.am      8 UNK        -0.4253 
     50 CA         29.4973   32.3764    2.3802 C.3       8 UNK         0.0242 
     51 CB         29.5926   33.8066    1.8062 C.3       8 UNK        -0.2000 
     52 C          29.5119   32.3393    3.9248 C.2       8 UNK         0.4948 
     53 O          29.3332   33.3721    4.5715 O.2       8 UNK        -0.5275 
     54 N          29.7498   31.1377    4.4708 N.am      9 UNK        -0.4246 
     55 CA         29.9106   30.7669    5.8807 C.3       9 UNK         0.0261 
     56 CB         28.7207   31.2336    6.7459 C.3       9 UNK        -0.1959 
     57 C          31.2713   31.1536    6.4929 C.2       9 UNK         0.5033 
     58 O          31.4737   30.8887    7.6796 O.2       9 UNK        -0.5390 
     59 N          32.1974   31.7318    5.7099 N.am      10 UNK        -0.4215 
     60 CA         33.5094   32.1823    6.1912 C.3       10 UNK         0.0240 
     61 CB         34.2011   33.0444    5.1246 C.3       10 UNK        -0.1982 
     62 C          34.4421   31.0468    6.6473 C.2       10 UNK         0.4970 
     63 O          35.2571   31.2814    7.5409 O.2       10 UNK        -0.4916 
     64 N          34.3102   29.8522    6.0526 N.am      11 UNK        -0.4279 
     65 CA         35.0405   28.6433    6.4717 C.3       11 UNK         0.1003 
     66 C          34.3170   27.8178    7.5782 C.2       11 UNK         0.5709 
     67 N          33.1742   28.2512    8.1012 N.am      11 UNK        -0.7358 
     68 O          34.8160   26.7739    7.9925 O.2       11 UNK        -0.4999 
     69 C69        35.5138   27.7900    5.2625 C.3       12 UNK        -0.0954 
     70 S70        34.1699   27.0459    4.2856 S.3       12 UNK        -0.2268 
     71 C71        35.0767   26.5234    2.7965 C.3       12 UNK         0.0203 
     72 H72        28.3790   19.0804    2.5284 H         1 UNK         0.0888 
     73 H73        27.5068   18.0472    1.3946 H         1 UNK         0.0888 
     74 H74        26.6419   18.8348    2.7175 H         1 UNK         0.0888 
     75 H75        28.8586   21.0836    1.6659 H         1 UNK         0.3017 
     76 H76        27.6458   22.1398   -0.6943 H         1 UNK         0.0873 
     77 H77        29.9082   22.6948   -0.4452 H         1 UNK         0.0745 
     78 H78        29.0954   24.1951   -0.1315 H         1 UNK         0.0745 
     79 H79        32.2806   22.3913    2.3072 H         1 UNK         0.0705 
     80 H80        31.8567   22.1751    0.6319 H         1 UNK         0.0705 
     81 H81        33.5741   24.2702    3.0218 H         1 UNK         0.1334 
     82 H82        34.5155   27.4164    0.2648 H         1 UNK         0.1417 
     83 H83        31.8425   24.2696   -0.8994 H         1 UNK         0.1562 
     84 H84        32.7189   25.8190   -2.5814 H         1 UNK         0.0748 
     85 H85        33.9557   26.9695   -2.1532 H         1 UNK         0.0748 
     86 H86        30.3066   25.9979   -1.3993 H         1 UNK         0.0940 
     87 H87        29.9023   26.8418   -2.8547 H         1 UNK         0.0940 
     88 H88        28.9741   28.7559   -1.5398 H         1 UNK         0.0703 
     89 H89        27.3244   26.8227   -0.3158 H         1 UNK         0.3081 
     90 H90        24.9649   27.0391   -2.9141 H         1 UNK         0.0719 
     91 H91        26.4046   24.4134   -2.2765 H         1 UNK         0.0809 
     92 H92        24.7075   24.5306   -2.7455 H         1 UNK         0.0809 
     93 H93        25.9705   25.0256   -3.8612 H         1 UNK         0.0809 
     94 H94        25.0357   25.5772   -0.4167 H         1 UNK         0.2990 
     95 H95        24.4357   28.2840    1.6898 H         1 UNK         0.0690 
     96 H96        22.1190   27.5410    2.1780 H         1 UNK         0.0788 
     97 H97        22.0418   26.6786    0.6401 H         1 UNK         0.0788 
     98 H98        22.1550   28.4327    0.6677 H         1 UNK         0.0788 
     99 H99        23.7101   25.6035    2.1524 H         1 UNK         0.2993 
    100 H100       26.4141   24.7939    3.8129 H         1 UNK         0.0949 
    101 H101       24.0717   23.4792    2.3143 H         1 UNK         0.0767 
    102 H102       24.8378   22.8619    3.7697 H         1 UNK         0.0767 
    103 H103       23.9575   24.3733    3.8332 H         1 UNK         0.0767 
    104 H104       27.6853   23.3857    2.6486 H         1 UNK         0.3013 
    105 H105       30.4253   26.3534    0.5522 H         1 UNK         0.3121 
    106 H106       31.3287   26.4458    2.5595 H         1 UNK         0.0774 
    107 H107       28.9799   26.2041    3.3416 H         1 UNK         0.0815 
    108 H108       29.9360   27.1277    4.4867 H         1 UNK         0.0815 
    109 H109       28.8078   27.9560    3.4204 H         1 UNK         0.0815 
    110 H110       31.8995   28.6212    0.6537 H         1 UNK         0.2987 
    111 H111       32.8377   30.6133    0.3652 H         1 UNK         0.0949 
    112 H112       34.7014   29.5490    1.6326 H         1 UNK         0.0806 
    113 H113       34.6474   31.2742    1.9388 H         1 UNK         0.0806 
    114 H114       34.0396   30.1520    3.1484 H         1 UNK         0.0806 
    115 H115       30.1500   30.6843    1.3010 H         1 UNK         0.3010 
    116 H116       28.5325   31.9650    2.0791 H         1 UNK         0.0829 
    117 H117       29.5699   33.7992    0.7166 H         1 UNK         0.0813 
    118 H118       28.7545   34.4180    2.1428 H         1 UNK         0.0813 
    119 H119       30.5068   34.3111    2.1200 H         1 UNK         0.0813 
    120 H120       29.9849   30.3834    3.8352 H         1 UNK         0.3038 
    121 H121       29.8970   29.6759    5.8858 H         1 UNK         0.0769 
    122 H122       28.7137   32.3153    6.8803 H         1 UNK         0.0811 
    123 H123       28.7654   30.7884    7.7406 H         1 UNK         0.0811 
    124 H124       27.7682   30.9413    6.3043 H         1 UNK         0.0811 
    125 H125       31.9843   31.9023    4.7339 H         1 UNK         0.3204 
    126 H126       33.3291   32.8173    7.0614 H         1 UNK         0.0748 
    127 H127       35.1224   33.4799    5.5139 H         1 UNK         0.0771 
    128 H128       34.4680   32.4600    4.2441 H         1 UNK         0.0771 
    129 H129       33.5644   33.8687    4.8021 H         1 UNK         0.0771 
    130 H130       33.5944   29.7182    5.3508 H         1 UNK         0.2980 
    131 H131       35.9627   28.9675    6.9568 H         1 UNK         0.0545 
    132 H132       32.7618   29.1278    7.8103 H         1 UNK         0.3459 
    133 H133       32.7300   27.7053    8.8219 H         1 UNK         0.3459 
    134 H134       36.1171   28.4123    4.5997 H         1 UNK         0.0616 
    135 H135       36.1743   26.9889    5.5989 H         1 UNK         0.0616 
    136 H136       35.6055   27.3818    2.3806 H         1 UNK         0.0634 
    137 H137       35.8378   25.7945    3.0779 H         1 UNK         0.0634 
@<TRIPOS>BOND
     1    1    2 1    
     2    1   72 1    
     3    1   73 1    
     4    1   74 1    
     5    2    3 2    
     6    2    4 am   BACKBONE|DICT|INTERRES
     7    4    5 1    
     8    4   75 1    
     9    5    6 1    
    10    5   35 1    
    11    5   76 1    
    12    6    7 1    
    13    6   77 1    
    14    6   78 1    
    15    7    8 1    
    16    8    9 1    
    17    8   79 1    
    18    8   80 1    
    19    9   10 ar   
    20    9   14 ar   
    21   10   11 ar   
    22   10   81 1    
    23   11   12 ar   
    24   11   71 1    
    25   12   13 ar   
    26   12   82 1    
    27   13   14 ar   
    28   13   15 1    
    29   14   83 1    
    30   15   16 1    
    31   15   84 1    
    32   15   85 1    
    33   16   17 1    
    34   17   18 1    
    35   17   86 1    
    36   17   87 1    
    37   18   19 1    
    38   18   37 1    
    39   18   88 1    
    40   19   20 am   BACKBONE|DICT|INTERRES
    41   19   89 1    
    42   20   21 2    
    43   20   22 1    
    44   22   23 1    
    45   22   24 1    
    46   22   90 1    
    47   23   91 1    
    48   23   92 1    
    49   23   93 1    
    50   24   25 am   BACKBONE|DICT|INTERRES
    51   24   94 1    
    52   25   26 2    
    53   25   27 1    
    54   27   28 1    
    55   27   29 1    
    56   27   95 1    
    57   28   96 1    
    58   28   97 1    
    59   28   98 1    
    60   29   30 am   BACKBONE|DICT|INTERRES
    61   29   99 1    
    62   30   31 2    
    63   30   32 1    
    64   32   33 1    
    65   32   34 1    
    66   32  100 1    
    67   33  101 1    
    68   33  102 1    
    69   33  103 1    
    70   34   35 am   BACKBONE|DICT|INTERRES
    71   34  104 1    
    72   35   36 2    
    73   37   38 2    
    74   37   39 am   BACKBONE|DICT|INTERRES
    75   39   40 1    
    76   39  105 1    
    77   40   41 1    
    78   40   42 1    
    79   40  106 1    
    80   41  107 1    
    81   41  108 1    
    82   41  109 1    
    83   42   43 2    
    84   42   44 am   BACKBONE|DICT|INTERRES
    85   44   45 1    
    86   44  110 1    
    87   45   46 1    
    88   45   47 1    
    89   45  111 1    
    90   46  112 1    
    91   46  113 1    
    92   46  114 1    
    93   47   48 2    
    94   47   49 am   BACKBONE|DICT|INTERRES
    95   49   50 1    
    96   49  115 1    
    97   50   51 1    
    98   50   52 1    
    99   50  116 1    
   100   51  117 1    
   101   51  118 1    
   102   51  119 1    
   103   52   53 2    
   104   52   54 am   BACKBONE|DICT|INTERRES
   105   54   55 1    
   106   54  120 1    
   107   55   56 1    
   108   55   57 1    
   109   55  121 1    
   110   56  122 1    
   111   56  123 1    
   112   56  124 1    
   113   57   58 2    
   114   57   59 am   BACKBONE|DICT|INTERRES
   115   59   60 1    
   116   59  125 1    
   117   60   61 1    
   118   60   62 1    
   119   60  126 1    
   120   61  127 1    
   121   61  128 1    
   122   61  129 1    
   123   62   63 2    
   124   62   64 am   BACKBONE|DICT|INTERRES
   125   64   65 1    
   126   64  130 1    
   127   65   66 1    
   128   65   69 1    
   129   65  131 1    
   130   66   67 am   BACKBONE|DICT|INTERRES
   131   66   68 2    
   132   67  132 1    
   133   67  133 1    
   134   69   70 1    
   135   69  134 1    
   136   69  135 1    
   137   70   71 1    
   138   71  136 1    
   139   71  137 1    
@<TRIPOS>SUBSTRUCTURE
     1 UNK         1 GROUP             0       ****    0 ROOT    
