@<TRIPOS>MOLECULE
3R136
137   139    1
SMALL
USER_CHARGES


@<TRIPOS>ATOM
      1 CA         30.7784   29.8281   -2.8534 C.3       0 UNK        -0.1979 
      2 C          29.9566   28.8865   -1.9862 C.2       0 UNK         0.4864 
      3 O          29.4220   27.9040   -2.5025 O.2       0 UNK        -0.5359 
      4 N          29.8313   29.2077   -0.6863 N.am      1 UNK        -0.4318 
      5 CA         29.1363   28.4574    0.3791 C.3       1 UNK         0.0824 
      6 C6         30.0348   27.4335    1.1287 C.3       12 UNK        -0.0944 
      7 S7         30.9690   26.2424    0.1143 S.3       12 UNK        -0.2672 
      8 C8         32.4255   25.9675    1.1753 C.3       12 UNK         0.0333 
      9 C9         32.0571   25.2933    2.4905 C.ar      12 UNK        -0.0807 
     10 C10        31.9292   26.0461    3.6641 C.ar      12 UNK        -0.0894 
     11 C11        31.5820   25.4278    4.8695 C.ar      12 UNK        -0.0804 
     12 C12        31.3638   24.0488    4.8951 C.ar      12 UNK        -0.0824 
     13 C13        31.4582   23.2909    3.7250 C.ar      12 UNK        -0.0762 
     14 C14        31.8250   23.9145    2.5285 C.ar      12 UNK        -0.0782 
     15 C15        31.1013   21.8110    3.7498 C.3       12 UNK         0.0230 
     16 S16        29.4494   21.4912    3.0382 S.3       12 UNK        -0.2608 
     17 C17        28.3847   22.6655    3.9497 C.3       12 UNK        -0.0989 
     18 CA         28.1214   23.9865    3.1637 C.3       5 UNK         0.0716 
     19 N          27.2164   23.7951    2.0299 N.am      5 UNK        -0.4135 
     20 C          27.5900   23.5711    0.7646 C.2       4 UNK         0.5031 
     21 O          28.7602   23.4617    0.3967 O.2       4 UNK        -0.5229 
     22 CA         26.4794   23.4549   -0.2888 C.3       4 UNK         0.0329 
     23 CB         25.0460   23.6508    0.2511 C.3       4 UNK        -0.2001 
     24 N          26.7491   24.4578   -1.3088 N.am      4 UNK        -0.4303 
     25 C          26.6065   24.3064   -2.6303 C.2       3 UNK         0.5044 
     26 O          26.2337   23.2586   -3.1623 O.2       3 UNK        -0.5152 
     27 CA         26.9321   25.5403   -3.5020 C.3       3 UNK         0.0319 
     28 CB         26.1947   25.5331   -4.8583 C.3       3 UNK        -0.2001 
     29 N          26.7277   26.8112   -2.7934 N.am      3 UNK        -0.4354 
     30 C          25.5795   27.2619   -2.2574 C.2       2 UNK         0.4964 
     31 O          24.4860   26.7228   -2.4352 O.2       2 UNK        -0.5047 
     32 CA         25.6636   28.5044   -1.3450 C.3       2 UNK         0.0288 
     33 CB         24.6063   28.4720   -0.2205 C.3       2 UNK        -0.2113 
     34 N          27.0005   28.7466   -0.7843 N.am      2 UNK        -0.4145 
     35 C          27.7273   27.9381    0.0070 C.2       1 UNK         0.5006 
     36 O          27.3257   26.8532    0.4363 O.2       1 UNK        -0.5103 
     37 C          27.5833   25.1279    4.0514 C.2       5 UNK         0.5055 
     38 O          27.5214   24.9767    5.2736 O.2       5 UNK        -0.5220 
     39 N          27.1740   26.2485    3.4343 N.am      6 UNK        -0.4450 
     40 CA         26.7782   27.4666    4.1527 C.3       6 UNK         0.0367 
     41 CB         25.9232   28.3559    3.2367 C.3       6 UNK        -0.1929 
     42 C          28.0086   28.2379    4.6639 C.2       6 UNK         0.5070 
     43 O          29.1067   28.0682    4.1334 O.2       6 UNK        -0.5237 
     44 N          27.8028   29.0922    5.6739 N.am      7 UNK        -0.4739 
     45 CA         28.8402   29.8872    6.3414 C.3       7 UNK         0.0276 
     46 CB         28.2977   30.3657    7.7011 C.3       7 UNK        -0.1927 
     47 C          29.3680   31.0516    5.4750 C.2       7 UNK         0.5013 
     48 O          29.1246   32.2177    5.7922 O.2       7 UNK        -0.5193 
     49 N          30.0759   30.7130    4.3947 N.am      8 UNK        -0.4253 
     50 CA         30.7385   31.6237    3.4654 C.3       8 UNK         0.0242 
     51 CB         29.7138   32.1797    2.4556 C.3       8 UNK        -0.2000 
     52 C          31.8917   30.8789    2.7759 C.2       8 UNK         0.4948 
     53 O          32.1252   29.7034    3.0726 O.2       8 UNK        -0.5275 
     54 N          32.6008   31.5743    1.8733 N.am      9 UNK        -0.4246 
     55 CA         33.7498   31.0908    1.0945 C.3       9 UNK         0.0261 
     56 CB         33.2955   30.0718    0.0245 C.3       9 UNK        -0.1959 
     57 C          34.8727   30.5800    2.0151 C.2       9 UNK         0.5033 
     58 O          35.4992   31.3941    2.6954 O.2       9 UNK        -0.5390 
     59 N          35.0668   29.2548    2.0724 N.am      10 UNK        -0.4215 
     60 CA         35.9876   28.5673    2.9849 C.3       10 UNK         0.0240 
     61 CB         35.9644   27.0595    2.6838 C.3       10 UNK        -0.1982 
     62 C          35.6915   28.8168    4.4772 C.2       10 UNK         0.4970 
     63 O          36.6203   28.7745    5.2850 O.2       10 UNK        -0.4916 
     64 N          34.4231   29.0903    4.8045 N.am      11 UNK        -0.4279 
     65 CA         33.9553   29.4920    6.1371 C.3       11 UNK         0.1003 
     66 C          33.7977   31.0344    6.2901 C.2       11 UNK         0.5709 
     67 N          34.2167   31.8583    5.3355 N.am      11 UNK        -0.7358 
     68 O          33.3007   31.5030    7.3112 O.2       11 UNK        -0.4999 
     69 C69        32.6569   28.7353    6.5149 C.3       12 UNK        -0.0954 
     70 S70        32.9467   26.9496    6.7495 S.3       12 UNK        -0.2268 
     71 C71        31.3858   26.2449    6.1379 C.3       12 UNK         0.0203 
     72 H72        30.8878   30.8113   -2.3965 H         1 UNK         0.0888 
     73 H73        31.7712   29.4112   -3.0205 H         1 UNK         0.0888 
     74 H74        30.2986   29.9629   -3.8225 H         1 UNK         0.0888 
     75 H75        30.2883   30.0496   -0.3678 H         1 UNK         0.3017 
     76 H76        28.9065   29.2147    1.1289 H         1 UNK         0.0873 
     77 H77        30.7564   27.9964    1.7184 H         1 UNK         0.0745 
     78 H78        29.4634   26.8643    1.8617 H         1 UNK         0.0745 
     79 H79        33.1431   25.3475    0.6362 H         1 UNK         0.0705 
     80 H80        32.9235   26.9195    1.3603 H         1 UNK         0.0705 
     81 H81        32.0816   27.1164    3.6416 H         1 UNK         0.1334 
     82 H82        31.0753   23.5701    5.8209 H         1 UNK         0.1417 
     83 H83        31.8838   23.3347    1.6171 H         1 UNK         0.1562 
     84 H84        31.1305   21.4244    4.7698 H         1 UNK         0.0748 
     85 H85        31.8461   21.2457    3.1878 H         1 UNK         0.0748 
     86 H86        28.8507   22.8579    4.9167 H         1 UNK         0.0940 
     87 H87        27.4396   22.1704    4.1787 H         1 UNK         0.0940 
     88 H88        29.0737   24.3646    2.7893 H         1 UNK         0.0703 
     89 H89        26.2319   23.8926    2.2329 H         1 UNK         0.3081 
     90 H90        26.5591   22.4543   -0.7186 H         1 UNK         0.0719 
     91 H91        24.9057   24.6417    0.6862 H         1 UNK         0.0809 
     92 H92        24.3137   23.5433   -0.5495 H         1 UNK         0.0809 
     93 H93        24.7976   22.9051    1.0074 H         1 UNK         0.0809 
     94 H94        27.0945   25.3433   -0.9508 H         1 UNK         0.2990 
     95 H95        28.0019   25.4852   -3.7089 H         1 UNK         0.0690 
     96 H96        26.4451   26.4133   -5.4503 H         1 UNK         0.0788 
     97 H97        25.1120   25.5090   -4.7321 H         1 UNK         0.0788 
     98 H98        26.4710   24.6583   -5.4481 H         1 UNK         0.0788 
     99 H99        27.5861   27.3224   -2.5956 H         1 UNK         0.2993 
    100 H100       25.4413   29.3596   -1.9849 H         1 UNK         0.0949 
    101 H101       24.7034   27.5776    0.3956 H         1 UNK         0.0767 
    102 H102       24.6890   29.3421    0.4307 H         1 UNK         0.0767 
    103 H103       23.5961   28.4727   -0.6316 H         1 UNK         0.0767 
    104 H104       27.4393   29.6057   -1.0854 H         1 UNK         0.3013 
    105 H105       27.2776   26.3258    2.4270 H         1 UNK         0.3121 
    106 H106       26.1691   27.1796    5.0128 H         1 UNK         0.0774 
    107 H107       26.5056   28.7771    2.4191 H         1 UNK         0.0815 
    108 H108       25.5008   29.1943    3.7915 H         1 UNK         0.0815 
    109 H109       25.0885   27.8003    2.8100 H         1 UNK         0.0815 
    110 H110       26.8626   29.2053    6.0252 H         1 UNK         0.2987 
    111 H111       29.6880   29.2318    6.5468 H         1 UNK         0.0949 
    112 H112       27.4222   31.0058    7.5857 H         1 UNK         0.0806 
    113 H113       28.0183   29.5245    8.3358 H         1 UNK         0.0806 
    114 H114       29.0521   30.9391    8.2419 H         1 UNK         0.0806 
    115 H115       30.2030   29.7236    4.1875 H         1 UNK         0.3010 
    116 H116       31.1763   32.4475    4.0331 H         1 UNK         0.0829 
    117 H117       28.9046   32.7049    2.9634 H         1 UNK         0.0813 
    118 H118       30.1698   32.8938    1.7696 H         1 UNK         0.0813 
    119 H119       29.2666   31.3880    1.8566 H         1 UNK         0.0813 
    120 H120       32.3685   32.5480    1.7354 H         1 UNK         0.3038 
    121 H121       34.1610   31.9549    0.5702 H         1 UNK         0.0769 
    122 H122       32.7611   29.2222    0.4502 H         1 UNK         0.0811 
    123 H123       34.1433   29.6858   -0.5434 H         1 UNK         0.0811 
    124 H124       32.6318   30.5497   -0.6937 H         1 UNK         0.0811 
    125 H125       34.4800   28.6713    1.4959 H         1 UNK         0.3204 
    126 H126       36.9918   28.9454    2.7828 H         1 UNK         0.0748 
    127 H127       36.6854   26.5280    3.3067 H         1 UNK         0.0771 
    128 H128       34.9843   26.6231    2.8809 H         1 UNK         0.0771 
    129 H129       36.2239   26.8545    1.6449 H         1 UNK         0.0771 
    130 H130       33.7219   29.1414    4.0715 H         1 UNK         0.2980 
    131 H131       34.7106   29.2210    6.8766 H         1 UNK         0.0545 
    132 H132       34.6742   31.5155    4.4979 H         1 UNK         0.3459 
    133 H133       34.1177   32.8506    5.4760 H         1 UNK         0.3459 
    134 H134       31.9066   28.8918    5.7396 H         1 UNK         0.0616 
    135 H135       32.2294   29.1142    7.4449 H         1 UNK         0.0616 
    136 H136       30.6496   27.0256    5.9554 H         1 UNK         0.0634 
    137 H137       30.9632   25.6254    6.9302 H         1 UNK         0.0634 
@<TRIPOS>BOND
     1    1    2 1    
     2    1   72 1    
     3    1   73 1    
     4    1   74 1    
     5    2    3 2    
     6    2    4 am   BACKBONE|DICT|INTERRES
     7    4    5 1    
     8    4   75 1    
     9    5    6 1    
    10    5   35 1    
    11    5   76 1    
    12    6    7 1    
    13    6   77 1    
    14    6   78 1    
    15    7    8 1    
    16    8    9 1    
    17    8   79 1    
    18    8   80 1    
    19    9   10 ar   
    20    9   14 ar   
    21   10   11 ar   
    22   10   81 1    
    23   11   12 ar   
    24   11   71 1    
    25   12   13 ar   
    26   12   82 1    
    27   13   14 ar   
    28   13   15 1    
    29   14   83 1    
    30   15   16 1    
    31   15   84 1    
    32   15   85 1    
    33   16   17 1    
    34   17   18 1    
    35   17   86 1    
    36   17   87 1    
    37   18   19 1    
    38   18   37 1    
    39   18   88 1    
    40   19   20 am   BACKBONE|DICT|INTERRES
    41   19   89 1    
    42   20   21 2    
    43   20   22 1    
    44   22   23 1    
    45   22   24 1    
    46   22   90 1    
    47   23   91 1    
    48   23   92 1    
    49   23   93 1    
    50   24   25 am   BACKBONE|DICT|INTERRES
    51   24   94 1    
    52   25   26 2    
    53   25   27 1    
    54   27   28 1    
    55   27   29 1    
    56   27   95 1    
    57   28   96 1    
    58   28   97 1    
    59   28   98 1    
    60   29   30 am   BACKBONE|DICT|INTERRES
    61   29   99 1    
    62   30   31 2    
    63   30   32 1    
    64   32   33 1    
    65   32   34 1    
    66   32  100 1    
    67   33  101 1    
    68   33  102 1    
    69   33  103 1    
    70   34   35 am   BACKBONE|DICT|INTERRES
    71   34  104 1    
    72   35   36 2    
    73   37   38 2    
    74   37   39 am   BACKBONE|DICT|INTERRES
    75   39   40 1    
    76   39  105 1    
    77   40   41 1    
    78   40   42 1    
    79   40  106 1    
    80   41  107 1    
    81   41  108 1    
    82   41  109 1    
    83   42   43 2    
    84   42   44 am   BACKBONE|DICT|INTERRES
    85   44   45 1    
    86   44  110 1    
    87   45   46 1    
    88   45   47 1    
    89   45  111 1    
    90   46  112 1    
    91   46  113 1    
    92   46  114 1    
    93   47   48 2    
    94   47   49 am   BACKBONE|DICT|INTERRES
    95   49   50 1    
    96   49  115 1    
    97   50   51 1    
    98   50   52 1    
    99   50  116 1    
   100   51  117 1    
   101   51  118 1    
   102   51  119 1    
   103   52   53 2    
   104   52   54 am   BACKBONE|DICT|INTERRES
   105   54   55 1    
   106   54  120 1    
   107   55   56 1    
   108   55   57 1    
   109   55  121 1    
   110   56  122 1    
   111   56  123 1    
   112   56  124 1    
   113   57   58 2    
   114   57   59 am   BACKBONE|DICT|INTERRES
   115   59   60 1    
   116   59  125 1    
   117   60   61 1    
   118   60   62 1    
   119   60  126 1    
   120   61  127 1    
   121   61  128 1    
   122   61  129 1    
   123   62   63 2    
   124   62   64 am   BACKBONE|DICT|INTERRES
   125   64   65 1    
   126   64  130 1    
   127   65   66 1    
   128   65   69 1    
   129   65  131 1    
   130   66   67 am   BACKBONE|DICT|INTERRES
   131   66   68 2    
   132   67  132 1    
   133   67  133 1    
   134   69   70 1    
   135   69  134 1    
   136   69  135 1    
   137   70   71 1    
   138   71  136 1    
   139   71  137 1    
@<TRIPOS>SUBSTRUCTURE
     1 UNK         1 GROUP             0       ****    0 ROOT    
