@<TRIPOS>MOLECULE
3R136
137   139    1
SMALL
USER_CHARGES


@<TRIPOS>ATOM
      1 CA         30.0724   23.6551    3.6813 C.3       0 UNK        -0.1979 
      2 C          30.7578   24.3462    2.5137 C.2       0 UNK         0.4864 
      3 O          31.3004   23.6728    1.6379 O.2       0 UNK        -0.5359 
      4 N          30.7322   25.6859    2.4967 N.am      1 UNK        -0.4318 
      5 CA         31.3687   26.5357    1.4807 C.3       1 UNK         0.0824 
      6 C6         31.3070   28.0303    1.8737 C.3       12 UNK        -0.0944 
      7 S7         32.3702   28.4018    3.2958 S.3       12 UNK        -0.2672 
      8 C8         31.2024   28.9364    4.5850 C.3       12 UNK         0.0333 
      9 C9         30.6507   27.7472    5.3499 C.ar      12 UNK        -0.0807 
     10 C10        31.5236   26.9211    6.0568 C.ar      12 UNK        -0.0894 
     11 C11        31.0618   25.7785    6.7174 C.ar      12 UNK        -0.0804 
     12 C12        29.6862   25.5158    6.7159 C.ar      12 UNK        -0.0824 
     13 C13        28.7879   26.3695    6.0611 C.ar      12 UNK        -0.0762 
     14 C14        29.2828   27.4783    5.3670 C.ar      12 UNK        -0.0782 
     15 C15        27.2863   26.1150    6.1491 C.3       12 UNK         0.0230 
     16 S16        26.5498   25.6196    4.5572 S.3       12 UNK        -0.2608 
     17 C17        25.9764   27.2211    3.8895 C.3       12 UNK        -0.0989 
     18 CA         26.0776   27.2582    2.3395 C.3       5 UNK         0.0716 
     19 N          25.1420   26.3305    1.6904 N.am      5 UNK        -0.4135 
     20 C          23.8003   26.4141    1.6834 C.2       4 UNK         0.5031 
     21 O          23.1716   27.3016    2.2625 O.2       4 UNK        -0.5229 
     22 CA         23.0199   25.3289    0.9055 C.3       4 UNK         0.0329 
     23 CB         21.7210   25.8792    0.2771 C.3       4 UNK        -0.2001 
     24 N          23.8193   24.6143   -0.0996 N.am      4 UNK        -0.4303 
     25 C          24.4424   25.1489   -1.1585 C.2       3 UNK         0.5044 
     26 O          24.3862   26.3398   -1.4743 O.2       3 UNK        -0.5152 
     27 CA         25.3585   24.2005   -1.9505 C.3       3 UNK         0.0319 
     28 CB         24.8064   23.9628   -3.3650 C.3       3 UNK        -0.2001 
     29 N          26.7180   24.7400   -2.0398 N.am      3 UNK        -0.4354 
     30 C          27.4818   25.0717   -0.9893 C.2       2 UNK         0.4964 
     31 O          27.1693   24.8575    0.1871 O.2       2 UNK        -0.5047 
     32 CA         28.7876   25.8071   -1.3048 C.3       2 UNK         0.0288 
     33 CB         28.5081   27.1680   -1.9779 C.3       2 UNK        -0.2113 
     34 N          29.5200   25.9999   -0.0567 N.am      2 UNK        -0.4145 
     35 C          30.8052   26.3507    0.0556 C.2       1 UNK         0.5006 
     36 O          31.5438   26.5486   -0.9107 O.2       1 UNK        -0.5103 
     37 C          26.0064   28.6859    1.7452 C.2       5 UNK         0.5055 
     38 O          26.2465   29.6624    2.4566 O.2       5 UNK        -0.5220 
     39 N          25.7034   28.7945    0.4430 N.am      6 UNK        -0.4450 
     40 CA         25.5628   30.0550   -0.2935 C.3       6 UNK         0.0367 
     41 CB         24.5913   29.8244   -1.4664 C.3       6 UNK        -0.1929 
     42 C          26.9159   30.6432   -0.7533 C.2       6 UNK         0.5070 
     43 O          27.0564   31.0145   -1.9198 O.2       6 UNK        -0.5237 
     44 N          27.8922   30.7180    0.1576 N.am      7 UNK        -0.4739 
     45 CA         29.2434   31.2410   -0.0562 C.3       7 UNK         0.0276 
     46 CB         30.0592   30.2729   -0.9379 C.3       7 UNK        -0.1927 
     47 C          29.9187   31.4665    1.3056 C.2       7 UNK         0.5013 
     48 O          29.3460   31.1001    2.3345 O.2       7 UNK        -0.5193 
     49 N          31.1238   32.0485    1.2901 N.am      8 UNK        -0.4253 
     50 CA         31.9754   32.2489    2.4616 C.3       8 UNK         0.0242 
     51 CB         31.8580   33.7024    2.9504 C.3       8 UNK        -0.2000 
     52 C          33.4211   31.9062    2.0816 C.2       8 UNK         0.4948 
     53 O          33.8682   32.2951    0.9999 O.2       8 UNK        -0.5275 
     54 N          34.1079   31.1931    2.9795 N.am      9 UNK        -0.4246 
     55 CA         35.4450   30.6073    2.8766 C.3       9 UNK         0.0261 
     56 CB         35.5712   29.7046    1.6247 C.3       9 UNK        -0.1959 
     57 C          35.6686   29.7936    4.1664 C.2       9 UNK         0.5033 
     58 O          34.8146   29.8132    5.0589 O.2       9 UNK        -0.5390 
     59 N          36.7824   29.0555    4.2446 N.am      10 UNK        -0.4215 
     60 CA         37.0943   28.1280    5.3385 C.3       10 UNK         0.0240 
     61 CB         38.6231   28.0776    5.5265 C.3       10 UNK        -0.1982 
     62 C          36.4778   26.7339    5.0901 C.2       10 UNK         0.4970 
     63 O          37.2045   25.7389    5.0697 O.2       10 UNK        -0.4916 
     64 N          35.1548   26.6926    4.8776 N.am      11 UNK        -0.4279 
     65 CA         34.3595   25.4870    4.5627 C.3       11 UNK         0.1003 
     66 C          34.7297   24.8163    3.2040 C.2       11 UNK         0.5709 
     67 N          35.2488   25.5593    2.2329 N.am      11 UNK        -0.7358 
     68 O          34.5341   23.6183    3.0155 O.2       11 UNK        -0.4999 
     69 C69        34.2659   24.4667    5.7394 C.3       12 UNK        -0.0954 
     70 S70        33.7911   25.1895    7.3511 S.3       12 UNK        -0.2268 
     71 C71        31.9985   24.8212    7.4627 C.3       12 UNK         0.0203 
     72 H72        29.2789   24.2730    4.0989 H         1 UNK         0.0888 
     73 H73        29.6259   22.7149    3.3589 H         1 UNK         0.0888 
     74 H74        30.7950   23.4404    4.4682 H         1 UNK         0.0888 
     75 H75        30.3074   26.1793    3.2698 H         1 UNK         0.3017 
     76 H76        32.4185   26.2384    1.4290 H         1 UNK         0.0873 
     77 H77        30.2803   28.3458    2.0687 H         1 UNK         0.0745 
     78 H78        31.6744   28.6603    1.0616 H         1 UNK         0.0745 
     79 H79        31.7298   29.5879    5.2832 H         1 UNK         0.0705 
     80 H80        30.4047   29.5360    4.1471 H         1 UNK         0.0705 
     81 H81        32.5706   27.1814    6.0661 H         1 UNK         0.1334 
     82 H82        29.3118   24.6506    7.2464 H         1 UNK         0.1417 
     83 H83        28.6125   28.1487    4.8523 H         1 UNK         0.1562 
     84 H84        26.7844   27.0034    6.5350 H         1 UNK         0.0748 
     85 H85        27.0827   25.3240    6.8724 H         1 UNK         0.0748 
     86 H86        26.5547   28.0238    4.3418 H         1 UNK         0.0940 
     87 H87        24.9508   27.3925    4.2192 H         1 UNK         0.0940 
     88 H88        27.0756   26.9080    2.0722 H         1 UNK         0.0703 
     89 H89        25.5862   25.5721    1.1823 H         1 UNK         0.3081 
     90 H90        22.7342   24.5825    1.6481 H         1 UNK         0.0719 
     91 H91        21.9221   26.6909   -0.4229 H         1 UNK         0.0809 
     92 H92        21.1778   25.1007   -0.2585 H         1 UNK         0.0809 
     93 H93        21.0495   26.2709    1.0421 H         1 UNK         0.0809 
     94 H94        23.9598   23.6296    0.0834 H         1 UNK         0.2990 
     95 H95        25.4161   23.2393   -1.4354 H         1 UNK         0.0690 
     96 H96        25.4270   23.2606   -3.9220 H         1 UNK         0.0788 
     97 H97        24.7500   24.8900   -3.9374 H         1 UNK         0.0788 
     98 H98        23.8000   23.5435   -3.3251 H         1 UNK         0.0788 
     99 H99        27.0429   24.9760   -2.9660 H         1 UNK         0.2993 
    100 H100       29.3794   25.1759   -1.9711 H         1 UNK         0.0949 
    101 H101       27.9067   27.0592   -2.8809 H         1 UNK         0.0767 
    102 H102       27.9724   27.8422   -1.3096 H         1 UNK         0.0767 
    103 H103       29.4330   27.6587   -2.2792 H         1 UNK         0.0767 
    104 H104       28.9868   25.7706    0.7729 H         1 UNK         0.3013 
    105 H105       25.5113   27.9502   -0.0813 H         1 UNK         0.3121 
    106 H106       25.1073   30.7961    0.3669 H         1 UNK         0.0774 
    107 H107       23.6312   29.4430   -1.1178 H         1 UNK         0.0815 
    108 H108       24.3935   30.7533   -2.0030 H         1 UNK         0.0815 
    109 H109       24.9925   29.1087   -2.1854 H         1 UNK         0.0815 
    110 H110       27.6912   30.4566    1.1205 H         1 UNK         0.2987 
    111 H111       29.1687   32.2110   -0.5524 H         1 UNK         0.0949 
    112 H112       29.6479   30.2100   -1.9452 H         1 UNK         0.0806 
    113 H113       31.0969   30.5909   -1.0423 H         1 UNK         0.0806 
    114 H114       30.0639   29.2672   -0.5214 H         1 UNK         0.0806 
    115 H115       31.5602   32.2802    0.4069 H         1 UNK         0.3010 
    116 H116       31.6620   31.5814    3.2669 H         1 UNK         0.0829 
    117 H117       30.8342   33.9400    3.2399 H         1 UNK         0.0813 
    118 H118       32.4904   33.8736    3.8224 H         1 UNK         0.0813 
    119 H119       32.1621   34.4125    2.1802 H         1 UNK         0.0813 
    120 H120       33.6613   30.9273    3.8516 H         1 UNK         0.3038 
    121 H121       36.1813   31.4117    2.8375 H         1 UNK         0.0769 
    122 H122       34.8329   28.9024    1.6297 H         1 UNK         0.0811 
    123 H123       36.5564   29.2436    1.5547 H         1 UNK         0.0811 
    124 H124       35.4371   30.2687    0.7026 H         1 UNK         0.0811 
    125 H125       37.4330   29.0722    3.4720 H         1 UNK         0.3204 
    126 H126       36.6643   28.5041    6.2695 H         1 UNK         0.0748 
    127 H127       39.0279   29.0660    5.7448 H         1 UNK         0.0771 
    128 H128       38.8936   27.4287    6.3607 H         1 UNK         0.0771 
    129 H129       39.1288   27.6964    4.6383 H         1 UNK         0.0771 
    130 H130       34.6457   27.5677    4.8968 H         1 UNK         0.2980 
    131 H131       33.3475   25.8419    4.3835 H         1 UNK         0.0545 
    132 H132       35.4875   25.1238    1.3563 H         1 UNK         0.3459 
    133 H133       35.4161   26.5410    2.3737 H         1 UNK         0.3459 
    134 H134       33.5563   23.6746    5.4954 H         1 UNK         0.0616 
    135 H135       35.2278   23.9704    5.8764 H         1 UNK         0.0616 
    136 H136       31.8215   23.8003    7.1218 H         1 UNK         0.0634 
    137 H137       31.7257   24.8410    8.5186 H         1 UNK         0.0634 
@<TRIPOS>BOND
     1    1    2 1    
     2    1   72 1    
     3    1   73 1    
     4    1   74 1    
     5    2    3 2    
     6    2    4 am   BACKBONE|DICT|INTERRES
     7    4    5 1    
     8    4   75 1    
     9    5    6 1    
    10    5   35 1    
    11    5   76 1    
    12    6    7 1    
    13    6   77 1    
    14    6   78 1    
    15    7    8 1    
    16    8    9 1    
    17    8   79 1    
    18    8   80 1    
    19    9   10 ar   
    20    9   14 ar   
    21   10   11 ar   
    22   10   81 1    
    23   11   12 ar   
    24   11   71 1    
    25   12   13 ar   
    26   12   82 1    
    27   13   14 ar   
    28   13   15 1    
    29   14   83 1    
    30   15   16 1    
    31   15   84 1    
    32   15   85 1    
    33   16   17 1    
    34   17   18 1    
    35   17   86 1    
    36   17   87 1    
    37   18   19 1    
    38   18   37 1    
    39   18   88 1    
    40   19   20 am   BACKBONE|DICT|INTERRES
    41   19   89 1    
    42   20   21 2    
    43   20   22 1    
    44   22   23 1    
    45   22   24 1    
    46   22   90 1    
    47   23   91 1    
    48   23   92 1    
    49   23   93 1    
    50   24   25 am   BACKBONE|DICT|INTERRES
    51   24   94 1    
    52   25   26 2    
    53   25   27 1    
    54   27   28 1    
    55   27   29 1    
    56   27   95 1    
    57   28   96 1    
    58   28   97 1    
    59   28   98 1    
    60   29   30 am   BACKBONE|DICT|INTERRES
    61   29   99 1    
    62   30   31 2    
    63   30   32 1    
    64   32   33 1    
    65   32   34 1    
    66   32  100 1    
    67   33  101 1    
    68   33  102 1    
    69   33  103 1    
    70   34   35 am   BACKBONE|DICT|INTERRES
    71   34  104 1    
    72   35   36 2    
    73   37   38 2    
    74   37   39 am   BACKBONE|DICT|INTERRES
    75   39   40 1    
    76   39  105 1    
    77   40   41 1    
    78   40   42 1    
    79   40  106 1    
    80   41  107 1    
    81   41  108 1    
    82   41  109 1    
    83   42   43 2    
    84   42   44 am   BACKBONE|DICT|INTERRES
    85   44   45 1    
    86   44  110 1    
    87   45   46 1    
    88   45   47 1    
    89   45  111 1    
    90   46  112 1    
    91   46  113 1    
    92   46  114 1    
    93   47   48 2    
    94   47   49 am   BACKBONE|DICT|INTERRES
    95   49   50 1    
    96   49  115 1    
    97   50   51 1    
    98   50   52 1    
    99   50  116 1    
   100   51  117 1    
   101   51  118 1    
   102   51  119 1    
   103   52   53 2    
   104   52   54 am   BACKBONE|DICT|INTERRES
   105   54   55 1    
   106   54  120 1    
   107   55   56 1    
   108   55   57 1    
   109   55  121 1    
   110   56  122 1    
   111   56  123 1    
   112   56  124 1    
   113   57   58 2    
   114   57   59 am   BACKBONE|DICT|INTERRES
   115   59   60 1    
   116   59  125 1    
   117   60   61 1    
   118   60   62 1    
   119   60  126 1    
   120   61  127 1    
   121   61  128 1    
   122   61  129 1    
   123   62   63 2    
   124   62   64 am   BACKBONE|DICT|INTERRES
   125   64   65 1    
   126   64  130 1    
   127   65   66 1    
   128   65   69 1    
   129   65  131 1    
   130   66   67 am   BACKBONE|DICT|INTERRES
   131   66   68 2    
   132   67  132 1    
   133   67  133 1    
   134   69   70 1    
   135   69  134 1    
   136   69  135 1    
   137   70   71 1    
   138   71  136 1    
   139   71  137 1    
@<TRIPOS>SUBSTRUCTURE
     1 UNK         1 GROUP             0       ****    0 ROOT    
