@<TRIPOS>MOLECULE
3R136
137   139    1
SMALL
USER_CHARGES


@<TRIPOS>ATOM
      1 CA         27.1110   21.5000    5.4180 C.3       0 UNK        -0.1979 
      2 C          27.6520   22.4001    4.3170 C.2       0 UNK         0.4864 
      3 O          28.3994   23.3328    4.6075 O.2       0 UNK        -0.5359 
      4 N          27.2724   22.1273    3.0592 N.am      1 UNK        -0.4318 
      5 CA         27.6775   22.8559    1.8459 C.3       1 UNK         0.0824 
      6 C6         29.2131   22.8046    1.5927 C.3       12 UNK        -0.0944 
      7 S7         29.6165   22.5184   -0.1617 S.3       12 UNK        -0.2672 
      8 C8         31.3595   22.0081   -0.0492 C.3       12 UNK         0.0333 
      9 C9         32.2675   23.1803    0.2913 C.ar      12 UNK        -0.0807 
     10 C10        32.6689   23.4043    1.6129 C.ar      12 UNK        -0.0894 
     11 C11        33.5055   24.4799    1.9249 C.ar      12 UNK        -0.0804 
     12 C12        33.9506   25.3239    0.9046 C.ar      12 UNK        -0.0824 
     13 C13        33.5324   25.1278   -0.4151 C.ar      12 UNK        -0.0762 
     14 C14        32.7010   24.0458   -0.7186 C.ar      12 UNK        -0.0782 
     15 C15        33.9518   26.1111   -1.5004 C.3       12 UNK         0.0230 
     16 S16        32.5887   27.2170   -2.0062 S.3       12 UNK        -0.2608 
     17 C17        32.0994   27.9926   -0.4219 C.3       12 UNK        -0.0989 
     18 CA         30.6163   28.4424   -0.3542 C.3       5 UNK         0.0716 
     19 N          29.7017   27.4921   -0.9960 N.am      5 UNK        -0.4135 
     20 C          28.3884   27.6702   -1.1912 C.2       4 UNK         0.5031 
     21 O          27.7476   28.6045   -0.7054 O.2       4 UNK        -0.5229 
     22 CA         27.6747   26.6677   -2.1143 C.3       4 UNK         0.0329 
     23 CB         28.5348   25.4521   -2.5179 C.3       4 UNK        -0.2001 
     24 N          26.4627   26.1937   -1.4553 N.am      4 UNK        -0.4303 
     25 C          25.2139   26.3280   -1.9229 C.2       3 UNK         0.5044 
     26 O          24.9391   26.8617   -2.9989 O.2       3 UNK        -0.5152 
     27 CA         24.0647   25.7514   -1.0698 C.3       3 UNK         0.0319 
     28 CB         23.4910   24.4847   -1.7269 C.3       3 UNK        -0.2001 
     29 N          24.4661   25.4297    0.3010 N.am      3 UNK        -0.4354 
     30 C          24.6785   26.3345    1.2662 C.2       2 UNK         0.4964 
     31 O          24.4271   27.5322    1.1447 O.2       2 UNK        -0.5047 
     32 CA         25.2910   25.8258    2.5835 C.3       2 UNK         0.0288 
     33 CB         24.2187   25.7368    3.6812 C.3       2 UNK        -0.2113 
     34 N          25.9768   24.5306    2.4780 N.am      2 UNK        -0.4145 
     35 C          27.0891   24.2874    1.7648 C.2       1 UNK         0.5006 
     36 O          27.6273   25.1417    1.0564 O.2       1 UNK        -0.5103 
     37 C          30.2476   28.7727    1.1059 C.2       5 UNK         0.5055 
     38 O          30.4679   29.9056    1.5344 O.2       5 UNK        -0.5220 
     39 N          29.6906   27.7940    1.8385 N.am      6 UNK        -0.4450 
     40 CA         29.3629   27.9029    3.2656 C.3       6 UNK         0.0367 
     41 CB         29.1774   26.5032    3.8700 C.3       6 UNK        -0.1929 
     42 C          28.1604   28.8162    3.5788 C.2       6 UNK         0.5070 
     43 O          27.8257   28.9850    4.7519 O.2       6 UNK        -0.5237 
     44 N          27.5493   29.4222    2.5495 N.am      7 UNK        -0.4739 
     45 CA         26.6515   30.5734    2.6804 C.3       7 UNK         0.0276 
     46 CB         26.0006   30.8594    1.3181 C.3       7 UNK        -0.1927 
     47 C          27.3746   31.8346    3.2006 C.2       7 UNK         0.5013 
     48 O          26.7227   32.7044    3.7800 O.2       7 UNK        -0.5193 
     49 N          28.6968   31.9032    2.9965 N.am      8 UNK        -0.4253 
     50 CA         29.6065   32.8994    3.5549 C.3       8 UNK         0.0242 
     51 CB         30.3359   33.5939    2.3913 C.3       8 UNK        -0.2000 
     52 C          30.6124   32.1898    4.4745 C.2       8 UNK         0.4948 
     53 O          30.6941   30.9597    4.4780 O.2       8 UNK        -0.5275 
     54 N          31.4222   32.9669    5.2040 N.am      9 UNK        -0.4246 
     55 CA         32.4801   32.4799    6.1034 C.3       9 UNK         0.0261 
     56 CB         32.8336   33.5977    7.1028 C.3       9 UNK        -0.1959 
     57 C          33.7311   31.9310    5.3737 C.2       9 UNK         0.5033 
     58 O          34.8450   32.0654    5.8838 O.2       9 UNK        -0.5390 
     59 N          33.5393   31.3217    4.1964 N.am      10 UNK        -0.4215 
     60 CA         34.5877   30.7771    3.3304 C.3       10 UNK         0.0240 
     61 CB         33.9791   30.4447    1.9588 C.3       10 UNK        -0.1982 
     62 C          35.2793   29.5362    3.9170 C.2       10 UNK         0.4970 
     63 O          36.4622   29.3229    3.6490 O.2       10 UNK        -0.4916 
     64 N          34.5323   28.7464    4.6973 N.am      11 UNK        -0.4279 
     65 CA         35.0100   27.5215    5.3567 C.3       11 UNK         0.1003 
     66 C          35.8106   27.7735    6.6687 C.2       11 UNK         0.5709 
     67 N          35.9589   29.0074    7.1391 N.am      11 UNK        -0.7358 
     68 O          36.3194   26.8289    7.2677 O.2       11 UNK        -0.4999 
     69 C69        33.8610   26.4989    5.5747 C.3       12 UNK        -0.0954 
     70 S70        32.9376   26.1335    4.0446 S.3       12 UNK        -0.2268 
     71 C71        33.9130   24.7588    3.3626 C.3       12 UNK         0.0203 
     72 H72        26.4608   20.7183    5.0254 H         1 UNK         0.0888 
     73 H73        27.9341   21.0214    5.9479 H         1 UNK         0.0888 
     74 H74        26.5397   22.0880    6.1359 H         1 UNK         0.0888 
     75 H75        26.6601   21.3387    2.8979 H         1 UNK         0.3017 
     76 H76        27.1847   22.3114    1.0389 H         1 UNK         0.0873 
     77 H77        29.6592   21.9852    2.1584 H         1 UNK         0.0745 
     78 H78        29.7149   23.7084    1.9444 H         1 UNK         0.0745 
     79 H79        31.4646   21.2094    0.6866 H         1 UNK         0.0705 
     80 H80        31.6614   21.5794   -1.0059 H         1 UNK         0.0705 
     81 H81        32.3197   22.7494    2.3995 H         1 UNK         0.1334 
     82 H82        34.5869   26.1637    1.1497 H         1 UNK         0.1417 
     83 H83        32.3733   23.8906   -1.7378 H         1 UNK         0.1562 
     84 H84        34.3024   25.5591   -2.3736 H         1 UNK         0.0748 
     85 H85        34.7944   26.7184   -1.1660 H         1 UNK         0.0748 
     86 H86        32.7555   28.8475   -0.2506 H         1 UNK         0.0940 
     87 H87        32.3015   27.2987    0.3923 H         1 UNK         0.0940 
     88 H88        30.5282   29.3724   -0.9199 H         1 UNK         0.0703 
     89 H89        30.1479   26.6977   -1.4317 H         1 UNK         0.3081 
     90 H90        27.4241   27.2178   -3.0233 H         1 UNK         0.0719 
     91 H91        28.8772   24.8949   -1.6462 H         1 UNK         0.0809 
     92 H92        27.9678   24.7632   -3.1443 H         1 UNK         0.0809 
     93 H93        29.4111   25.7528   -3.0938 H         1 UNK         0.0809 
     94 H94        26.6063   25.7979   -0.5317 H         1 UNK         0.2990 
     95 H95        23.2752   26.5051   -1.0331 H         1 UNK         0.0690 
     96 H96        22.6386   24.0981   -1.1677 H         1 UNK         0.0788 
     97 H97        24.2370   23.6919   -1.7963 H         1 UNK         0.0788 
     98 H98        23.1430   24.6934   -2.7396 H         1 UNK         0.0788 
     99 H99        24.6745   24.4622    0.4980 H         1 UNK         0.2993 
    100 H100       26.0285   26.5702    2.8890 H         1 UNK         0.0949 
    101 H101       24.6579   25.4765    4.6446 H         1 UNK         0.0767 
    102 H102       23.7097   26.6935    3.8085 H         1 UNK         0.0767 
    103 H103       23.4582   24.9917    3.4438 H         1 UNK         0.0767 
    104 H104       25.5992   23.7760    3.0323 H         1 UNK         0.3013 
    105 H105       29.4830   26.9099    1.3924 H         1 UNK         0.3121 
    106 H106       30.2291   28.3528    3.7558 H         1 UNK         0.0774 
    107 H107       29.1993   26.5478    4.9593 H         1 UNK         0.0815 
    108 H108       28.2216   26.0671    3.5932 H         1 UNK         0.0815 
    109 H109       29.9639   25.8152    3.5605 H         1 UNK         0.0815 
    110 H110       27.8507   29.1920    1.6105 H         1 UNK         0.2987 
    111 H111       25.8678   30.3171    3.3965 H         1 UNK         0.0949 
    112 H112       26.7442   31.1172    0.5625 H         1 UNK         0.0806 
    113 H113       25.4438   29.9964    0.9538 H         1 UNK         0.0806 
    114 H114       25.2995   31.6922    1.3864 H         1 UNK         0.0806 
    115 H115       29.1615   31.1058    2.5699 H         1 UNK         0.3010 
    116 H116       29.0614   33.6406    4.1431 H         1 UNK         0.0829 
    117 H117       29.6289   34.0708    1.7123 H         1 UNK         0.0813 
    118 H118       31.0111   34.3716    2.7498 H         1 UNK         0.0813 
    119 H119       30.9295   32.8864    1.8096 H         1 UNK         0.0813 
    120 H120       31.3320   33.9700    5.1234 H         1 UNK         0.3038 
    121 H121       32.0727   31.6454    6.6783 H         1 UNK         0.0769 
    122 H122       33.2822   34.4570    6.6029 H         1 UNK         0.0811 
    123 H123       33.5457   33.2471    7.8512 H         1 UNK         0.0811 
    124 H124       31.9513   33.9437    7.6416 H         1 UNK         0.0811 
    125 H125       32.5764   31.1822    3.9045 H         1 UNK         0.3204 
    126 H126       35.3482   31.5490    3.1948 H         1 UNK         0.0748 
    127 H127       34.7399   30.0718    1.2716 H         1 UNK         0.0771 
    128 H128       33.2082   29.6776    2.0418 H         1 UNK         0.0771 
    129 H129       33.5275   31.3238    1.4982 H         1 UNK         0.0771 
    130 H130       33.5680   28.9928    4.8610 H         1 UNK         0.2980 
    131 H131       35.7235   27.0478    4.6801 H         1 UNK         0.0545 
    132 H132       35.5715   29.7991    6.6475 H         1 UNK         0.3459 
    133 H133       36.4851   29.1498    7.9866 H         1 UNK         0.3459 
    134 H134       34.2453   25.5620    5.9824 H         1 UNK         0.0616 
    135 H135       33.1503   26.8814    6.3092 H         1 UNK         0.0616 
    136 H136       34.9746   25.0079    3.3980 H         1 UNK         0.0634 
    137 H137       33.7769   23.8735    3.9855 H         1 UNK         0.0634 
@<TRIPOS>BOND
     1    1    2 1    
     2    1   72 1    
     3    1   73 1    
     4    1   74 1    
     5    2    3 2    
     6    2    4 am   BACKBONE|DICT|INTERRES
     7    4    5 1    
     8    4   75 1    
     9    5    6 1    
    10    5   35 1    
    11    5   76 1    
    12    6    7 1    
    13    6   77 1    
    14    6   78 1    
    15    7    8 1    
    16    8    9 1    
    17    8   79 1    
    18    8   80 1    
    19    9   10 ar   
    20    9   14 ar   
    21   10   11 ar   
    22   10   81 1    
    23   11   12 ar   
    24   11   71 1    
    25   12   13 ar   
    26   12   82 1    
    27   13   14 ar   
    28   13   15 1    
    29   14   83 1    
    30   15   16 1    
    31   15   84 1    
    32   15   85 1    
    33   16   17 1    
    34   17   18 1    
    35   17   86 1    
    36   17   87 1    
    37   18   19 1    
    38   18   37 1    
    39   18   88 1    
    40   19   20 am   BACKBONE|DICT|INTERRES
    41   19   89 1    
    42   20   21 2    
    43   20   22 1    
    44   22   23 1    
    45   22   24 1    
    46   22   90 1    
    47   23   91 1    
    48   23   92 1    
    49   23   93 1    
    50   24   25 am   BACKBONE|DICT|INTERRES
    51   24   94 1    
    52   25   26 2    
    53   25   27 1    
    54   27   28 1    
    55   27   29 1    
    56   27   95 1    
    57   28   96 1    
    58   28   97 1    
    59   28   98 1    
    60   29   30 am   BACKBONE|DICT|INTERRES
    61   29   99 1    
    62   30   31 2    
    63   30   32 1    
    64   32   33 1    
    65   32   34 1    
    66   32  100 1    
    67   33  101 1    
    68   33  102 1    
    69   33  103 1    
    70   34   35 am   BACKBONE|DICT|INTERRES
    71   34  104 1    
    72   35   36 2    
    73   37   38 2    
    74   37   39 am   BACKBONE|DICT|INTERRES
    75   39   40 1    
    76   39  105 1    
    77   40   41 1    
    78   40   42 1    
    79   40  106 1    
    80   41  107 1    
    81   41  108 1    
    82   41  109 1    
    83   42   43 2    
    84   42   44 am   BACKBONE|DICT|INTERRES
    85   44   45 1    
    86   44  110 1    
    87   45   46 1    
    88   45   47 1    
    89   45  111 1    
    90   46  112 1    
    91   46  113 1    
    92   46  114 1    
    93   47   48 2    
    94   47   49 am   BACKBONE|DICT|INTERRES
    95   49   50 1    
    96   49  115 1    
    97   50   51 1    
    98   50   52 1    
    99   50  116 1    
   100   51  117 1    
   101   51  118 1    
   102   51  119 1    
   103   52   53 2    
   104   52   54 am   BACKBONE|DICT|INTERRES
   105   54   55 1    
   106   54  120 1    
   107   55   56 1    
   108   55   57 1    
   109   55  121 1    
   110   56  122 1    
   111   56  123 1    
   112   56  124 1    
   113   57   58 2    
   114   57   59 am   BACKBONE|DICT|INTERRES
   115   59   60 1    
   116   59  125 1    
   117   60   61 1    
   118   60   62 1    
   119   60  126 1    
   120   61  127 1    
   121   61  128 1    
   122   61  129 1    
   123   62   63 2    
   124   62   64 am   BACKBONE|DICT|INTERRES
   125   64   65 1    
   126   64  130 1    
   127   65   66 1    
   128   65   69 1    
   129   65  131 1    
   130   66   67 am   BACKBONE|DICT|INTERRES
   131   66   68 2    
   132   67  132 1    
   133   67  133 1    
   134   69   70 1    
   135   69  134 1    
   136   69  135 1    
   137   70   71 1    
   138   71  136 1    
   139   71  137 1    
@<TRIPOS>SUBSTRUCTURE
     1 UNK         1 GROUP             0       ****    0 ROOT    
