@<TRIPOS>MOLECULE
3R136
137   139    1
SMALL
USER_CHARGES


@<TRIPOS>ATOM
      1 CA         27.7087   18.1255   -0.9464 C.3       0 UNK        -0.1979 
      2 C          28.7204   19.1998   -1.3169 C.2       0 UNK         0.4864 
      3 O          29.3063   19.1415   -2.3987 O.2       0 UNK        -0.5359 
      4 N          28.9290   20.1807   -0.4283 N.am      1 UNK        -0.4318 
      5 CA         29.8603   21.3017   -0.6148 C.3       1 UNK         0.0824 
      6 C6         30.2474   21.9464    0.7413 C.3       12 UNK        -0.0944 
      7 S7         28.8336   22.6512    1.6654 S.3       12 UNK        -0.2672 
      8 C8         29.2851   24.4147    1.7372 C.3       12 UNK         0.0333 
      9 C9         30.2877   24.6850    2.8481 C.ar      12 UNK        -0.0807 
     10 C10        31.6555   24.7602    2.5687 C.ar      12 UNK        -0.0894 
     11 C11        32.5786   24.9843    3.5946 C.ar      12 UNK        -0.0804 
     12 C12        32.1208   25.1609    4.9033 C.ar      12 UNK        -0.0824 
     13 C13        30.7531   25.1143    5.1917 C.ar      12 UNK        -0.0762 
     14 C14        29.8434   24.8586    4.1616 C.ar      12 UNK        -0.0782 
     15 C15        30.2642   25.3236    6.6180 C.3       12 UNK         0.0230 
     16 S16        29.8453   27.0678    6.9447 S.3       12 UNK        -0.2608 
     17 C17        28.2073   27.2342    6.1565 C.3       12 UNK        -0.0989 
     18 CA         28.2622   27.9179    4.7643 C.3       5 UNK         0.0716 
     19 N          27.1411   27.4792    3.9185 N.am      5 UNK        -0.4135 
     20 C          26.9950   27.7725    2.6201 C.2       4 UNK         0.5031 
     21 O          27.7896   28.4625    1.9778 O.2       4 UNK        -0.5229 
     22 CA         25.7170   27.2723    1.9409 C.3       4 UNK         0.0329 
     23 CB         24.5165   28.1615    2.3180 C.3       4 UNK        -0.2001 
     24 N          25.9226   27.3025    0.4964 N.am      4 UNK        -0.4303 
     25 C          25.2489   26.5858   -0.4087 C.2       3 UNK         0.5044 
     26 O          24.3267   25.8194   -0.1229 O.2       3 UNK        -0.5152 
     27 CA         25.6559   26.7341   -1.8905 C.3       3 UNK         0.0319 
     28 CB         26.6991   27.8423   -2.1679 C.3       3 UNK        -0.2001 
     29 N          26.0902   25.4482   -2.4504 N.am      3 UNK        -0.4354 
     30 C          27.1202   24.7015   -2.0259 C.2       2 UNK         0.4964 
     31 O          27.9029   25.0588   -1.1448 O.2       2 UNK        -0.5047 
     32 CA         27.2715   23.3259   -2.7025 C.3       2 UNK         0.0288 
     33 CB         27.8266   23.4517   -4.1371 C.3       2 UNK        -0.2113 
     34 N          28.0476   22.3747   -1.8937 N.am      2 UNK        -0.4145 
     35 C          29.3670   22.3553   -1.6356 C.2       1 UNK         0.5006 
     36 O          30.1935   23.1087   -2.1543 O.2       1 UNK        -0.5103 
     37 C          28.3667   29.4576    4.8804 C.2       5 UNK         0.5055 
     38 O          29.4714   29.9889    4.9864 O.2       5 UNK        -0.5220 
     39 N          27.2178   30.1493    4.8256 N.am      6 UNK        -0.4450 
     40 CA         27.1323   31.6117    4.7987 C.3       6 UNK         0.0367 
     41 CB         25.6891   32.0412    5.1084 C.3       6 UNK        -0.1929 
     42 C          27.5980   32.2212    3.4631 C.2       6 UNK         0.5070 
     43 O          28.1060   33.3425    3.4613 O.2       6 UNK        -0.5237 
     44 N          27.4136   31.4863    2.3566 N.am      7 UNK        -0.4739 
     45 CA         27.8759   31.8753    1.0227 C.3       7 UNK         0.0276 
     46 CB         27.0184   31.1845   -0.0493 C.3       7 UNK        -0.1927 
     47 C          29.3634   31.5423    0.8429 C.2       7 UNK         0.5013 
     48 O          30.1254   32.3882    0.3729 O.2       7 UNK        -0.5193 
     49 N          29.7673   30.3412    1.2791 N.am      8 UNK        -0.4253 
     50 CA         31.1513   29.8654    1.3406 C.3       8 UNK         0.0242 
     51 CB         31.1423   28.3247    1.3921 C.3       8 UNK        -0.2000 
     52 C          31.9139   30.4854    2.5293 C.2       8 UNK         0.4948 
     53 O          32.5190   29.7615    3.3197 O.2       8 UNK        -0.5275 
     54 N          31.8849   31.8211    2.6369 N.am      9 UNK        -0.4246 
     55 CA         32.3775   32.6212    3.7665 C.3       9 UNK         0.0261 
     56 CB         32.0509   34.1004    3.5041 C.3       9 UNK        -0.1959 
     57 C          33.8699   32.4479    4.1117 C.2       9 UNK         0.5033 
     58 O          34.2753   32.8071    5.2182 O.2       9 UNK        -0.5390 
     59 N          34.6548   31.8892    3.1814 N.am      10 UNK        -0.4215 
     60 CA         36.0441   31.4781    3.3853 C.3       10 UNK         0.0240 
     61 CB         36.6768   31.1666    2.0188 C.3       10 UNK        -0.1982 
     62 C          36.2046   30.2739    4.3361 C.2       10 UNK         0.4970 
     63 O          37.3019   30.0909    4.8658 O.2       10 UNK        -0.4916 
     64 N          35.1444   29.4780    4.5325 N.am      11 UNK        -0.4279 
     65 CA         35.1496   28.2738    5.3772 C.3       11 UNK         0.1003 
     66 C          33.8440   28.0374    6.1829 C.2       11 UNK         0.5709 
     67 N          32.7148   28.6358    5.8329 N.am      11 UNK        -0.7358 
     68 O          33.8668   27.3097    7.1730 O.2       11 UNK        -0.4999 
     69 C69        35.6162   27.0102    4.6031 C.3       12 UNK        -0.0954 
     70 S70        34.6979   26.6935    3.0509 S.3       12 UNK        -0.2268 
     71 C71        34.0688   25.0016    3.2881 C.3       12 UNK         0.0203 
     72 H72        27.2682   18.3008    0.0350 H         1 UNK         0.0888 
     73 H73        26.9032   18.0993   -1.6799 H         1 UNK         0.0888 
     74 H74        28.1888   17.1474   -0.9321 H         1 UNK         0.0888 
     75 H75        28.4265   20.1793    0.4489 H         1 UNK         0.3017 
     76 H76        30.7774   20.8863   -1.0391 H         1 UNK         0.0873 
     77 H77        30.7192   21.1975    1.3794 H         1 UNK         0.0745 
     78 H78        31.0109   22.7091    0.5841 H         1 UNK         0.0745 
     79 H79        29.6827   24.7385    0.7743 H         1 UNK         0.0705 
     80 H80        28.3824   25.0042    1.9036 H         1 UNK         0.0705 
     81 H81        32.0050   24.6310    1.5539 H         1 UNK         0.1334 
     82 H82        32.8311   25.3353    5.6989 H         1 UNK         0.1417 
     83 H83        28.7862   24.7982    4.3785 H         1 UNK         0.1562 
     84 H84        31.0422   25.0201    7.3204 H         1 UNK         0.0748 
     85 H85        29.4060   24.6836    6.8280 H         1 UNK         0.0748 
     86 H86        27.5462   27.7764    6.8358 H         1 UNK         0.0940 
     87 H87        27.7726   26.2372    6.0766 H         1 UNK         0.0940 
     88 H88        29.1699   27.5889    4.2541 H         1 UNK         0.0703 
     89 H89        26.4276   26.9266    4.3718 H         1 UNK         0.3081 
     90 H90        25.5359   26.2428    2.2574 H         1 UNK         0.0719 
     91 H91        24.6704   29.1972    2.0114 H         1 UNK         0.0809 
     92 H92        23.5987   27.8097    1.8464 H         1 UNK         0.0809 
     93 H93        24.3416   28.1593    3.3944 H         1 UNK         0.0809 
     94 H94        26.7222   27.8508    0.2052 H         1 UNK         0.2990 
     95 H95        24.7450   27.0069   -2.4254 H         1 UNK         0.0690 
     96 H96        26.9268   27.9041   -3.2321 H         1 UNK         0.0788 
     97 H97        27.6402   27.6750   -1.6425 H         1 UNK         0.0788 
     98 H98        26.3173   28.8192   -1.8709 H         1 UNK         0.0788 
     99 H99        25.4861   25.0641   -3.1638 H         1 UNK         0.2993 
    100 H100       26.2715   22.8940   -2.7702 H         1 UNK         0.0949 
    101 H101       27.1389   24.0077   -4.7752 H         1 UNK         0.0767 
    102 H102       28.7806   23.9790   -4.1616 H         1 UNK         0.0767 
    103 H103       27.9714   22.4727   -4.5943 H         1 UNK         0.0767 
    104 H104       27.4903   21.7098   -1.3770 H         1 UNK         0.3013 
    105 H105       26.3494   29.6395    4.7612 H         1 UNK         0.3121 
    106 H106       27.7815   32.0059    5.5838 H         1 UNK         0.0774 
    107 H107       25.6014   33.1286    5.1204 H         1 UNK         0.0815 
    108 H108       24.9856   31.6668    4.3636 H         1 UNK         0.0815 
    109 H109       25.3684   31.6821    6.0864 H         1 UNK         0.0815 
    110 H110       27.0478   30.5496    2.4524 H         1 UNK         0.2987 
    111 H111       27.7572   32.9550    0.9045 H         1 UNK         0.0949 
    112 H112       27.0948   30.0999    0.0086 H         1 UNK         0.0806 
    113 H113       25.9664   31.4521    0.0511 H         1 UNK         0.0806 
    114 H114       27.3345   31.4803   -1.0505 H         1 UNK         0.0806 
    115 H115       29.0628   29.7023    1.6437 H         1 UNK         0.3010 
    116 H116       31.6674   30.1696    0.4278 H         1 UNK         0.0829 
    117 H117       30.6104   27.8986    0.5414 H         1 UNK         0.0813 
    118 H118       32.1568   27.9241    1.3756 H         1 UNK         0.0813 
    119 H119       30.6653   27.9558    2.3013 H         1 UNK         0.0813 
    120 H120       31.3721   32.3218    1.9173 H         1 UNK         0.3038 
    121 H121       31.8152   32.2995    4.6457 H         1 UNK         0.0769 
    122 H122       32.5524   34.4707    2.6091 H         1 UNK         0.0811 
    123 H123       32.3672   34.7268    4.3394 H         1 UNK         0.0811 
    124 H124       30.9785   34.2523    3.3767 H         1 UNK         0.0811 
    125 H125       34.2261   31.6266    2.3062 H         1 UNK         0.3204 
    126 H126       36.5823   32.3181    3.8296 H         1 UNK         0.0748 
    127 H127       36.6374   32.0309    1.3554 H         1 UNK         0.0771 
    128 H128       37.7271   30.8925    2.1282 H         1 UNK         0.0771 
    129 H129       36.1740   30.3356    1.5217 H         1 UNK         0.0771 
    130 H130       34.2679   29.6742    4.0573 H         1 UNK         0.2980 
    131 H131       35.8902   28.4410    6.1618 H         1 UNK         0.0545 
    132 H132       31.8806   28.4486    6.3668 H         1 UNK         0.3459 
    133 H133       32.6351   29.1391    4.9515 H         1 UNK         0.3459 
    134 H134       35.5859   26.1342    5.2524 H         1 UNK         0.0616 
    135 H135       36.6661   27.1284    4.3318 H         1 UNK         0.0616 
    136 H136       34.2636   24.4371    2.3751 H         1 UNK         0.0634 
    137 H137       34.6199   24.4851    4.0745 H         1 UNK         0.0634 
@<TRIPOS>BOND
     1    1    2 1    
     2    1   72 1    
     3    1   73 1    
     4    1   74 1    
     5    2    3 2    
     6    2    4 am   BACKBONE|DICT|INTERRES
     7    4    5 1    
     8    4   75 1    
     9    5    6 1    
    10    5   35 1    
    11    5   76 1    
    12    6    7 1    
    13    6   77 1    
    14    6   78 1    
    15    7    8 1    
    16    8    9 1    
    17    8   79 1    
    18    8   80 1    
    19    9   10 ar   
    20    9   14 ar   
    21   10   11 ar   
    22   10   81 1    
    23   11   12 ar   
    24   11   71 1    
    25   12   13 ar   
    26   12   82 1    
    27   13   14 ar   
    28   13   15 1    
    29   14   83 1    
    30   15   16 1    
    31   15   84 1    
    32   15   85 1    
    33   16   17 1    
    34   17   18 1    
    35   17   86 1    
    36   17   87 1    
    37   18   19 1    
    38   18   37 1    
    39   18   88 1    
    40   19   20 am   BACKBONE|DICT|INTERRES
    41   19   89 1    
    42   20   21 2    
    43   20   22 1    
    44   22   23 1    
    45   22   24 1    
    46   22   90 1    
    47   23   91 1    
    48   23   92 1    
    49   23   93 1    
    50   24   25 am   BACKBONE|DICT|INTERRES
    51   24   94 1    
    52   25   26 2    
    53   25   27 1    
    54   27   28 1    
    55   27   29 1    
    56   27   95 1    
    57   28   96 1    
    58   28   97 1    
    59   28   98 1    
    60   29   30 am   BACKBONE|DICT|INTERRES
    61   29   99 1    
    62   30   31 2    
    63   30   32 1    
    64   32   33 1    
    65   32   34 1    
    66   32  100 1    
    67   33  101 1    
    68   33  102 1    
    69   33  103 1    
    70   34   35 am   BACKBONE|DICT|INTERRES
    71   34  104 1    
    72   35   36 2    
    73   37   38 2    
    74   37   39 am   BACKBONE|DICT|INTERRES
    75   39   40 1    
    76   39  105 1    
    77   40   41 1    
    78   40   42 1    
    79   40  106 1    
    80   41  107 1    
    81   41  108 1    
    82   41  109 1    
    83   42   43 2    
    84   42   44 am   BACKBONE|DICT|INTERRES
    85   44   45 1    
    86   44  110 1    
    87   45   46 1    
    88   45   47 1    
    89   45  111 1    
    90   46  112 1    
    91   46  113 1    
    92   46  114 1    
    93   47   48 2    
    94   47   49 am   BACKBONE|DICT|INTERRES
    95   49   50 1    
    96   49  115 1    
    97   50   51 1    
    98   50   52 1    
    99   50  116 1    
   100   51  117 1    
   101   51  118 1    
   102   51  119 1    
   103   52   53 2    
   104   52   54 am   BACKBONE|DICT|INTERRES
   105   54   55 1    
   106   54  120 1    
   107   55   56 1    
   108   55   57 1    
   109   55  121 1    
   110   56  122 1    
   111   56  123 1    
   112   56  124 1    
   113   57   58 2    
   114   57   59 am   BACKBONE|DICT|INTERRES
   115   59   60 1    
   116   59  125 1    
   117   60   61 1    
   118   60   62 1    
   119   60  126 1    
   120   61  127 1    
   121   61  128 1    
   122   61  129 1    
   123   62   63 2    
   124   62   64 am   BACKBONE|DICT|INTERRES
   125   64   65 1    
   126   64  130 1    
   127   65   66 1    
   128   65   69 1    
   129   65  131 1    
   130   66   67 am   BACKBONE|DICT|INTERRES
   131   66   68 2    
   132   67  132 1    
   133   67  133 1    
   134   69   70 1    
   135   69  134 1    
   136   69  135 1    
   137   70   71 1    
   138   71  136 1    
   139   71  137 1    
@<TRIPOS>SUBSTRUCTURE
     1 UNK         1 GROUP             0       ****    0 ROOT    
