@<TRIPOS>MOLECULE
3R136
137   139    1
SMALL
USER_CHARGES


@<TRIPOS>ATOM
      1 CA         26.2733   29.8897    4.9491 C.3       0 UNK        -0.1979 
      2 C          26.1486   28.4713    4.4157 C.2       0 UNK         0.4864 
      3 O          25.1171   27.8253    4.6114 O.2       0 UNK        -0.5359 
      4 N          27.1884   27.9820    3.7292 N.am      1 UNK        -0.4318 
      5 CA         27.2922   26.6276    3.1653 C.3       1 UNK         0.0824 
      6 C6         28.7699   26.2136    2.9476 C.3       12 UNK        -0.0944 
      7 S7         29.7155   26.1745    4.5058 S.3       12 UNK        -0.2672 
      8 C8         31.0305   24.9837    4.0951 C.3       12 UNK         0.0333 
      9 C9         31.9205   25.4909    2.9696 C.ar      12 UNK        -0.0807 
     10 C10        32.8166   26.5331    3.2092 C.ar      12 UNK        -0.0894 
     11 C11        33.6394   27.0161    2.1895 C.ar      12 UNK        -0.0804 
     12 C12        33.5669   26.4398    0.9172 C.ar      12 UNK        -0.0824 
     13 C13        32.6693   25.3957    0.6606 C.ar      12 UNK        -0.0762 
     14 C14        31.8523   24.9241    1.6942 C.ar      12 UNK        -0.0782 
     15 C15        32.5802   24.7534   -0.7203 C.3       12 UNK         0.0230 
     16 S16        32.4232   25.9367   -2.1029 S.3       12 UNK        -0.2608 
     17 C17        31.0960   27.0760   -1.5805 C.3       12 UNK        -0.0989 
     18 CA         29.7182   26.7534   -2.2147 C.3       5 UNK         0.0716 
     19 N          29.1545   25.5176   -1.6594 N.am      5 UNK        -0.4135 
     20 C          28.0902   24.8565   -2.1333 C.2       4 UNK         0.5031 
     21 O          27.3948   25.2582   -3.0670 O.2       4 UNK        -0.5229 
     22 CA         27.7509   23.5079   -1.4776 C.3       4 UNK         0.0329 
     23 CB         28.8458   22.9507   -0.5438 C.3       4 UNK        -0.2001 
     24 N          26.5090   23.6413   -0.7243 N.am      4 UNK        -0.4303 
     25 C          25.4807   22.7830   -0.7677 C.2       3 UNK         0.5044 
     26 O          25.4589   21.7802   -1.4834 O.2       3 UNK        -0.5152 
     27 CA         24.2754   23.0549    0.1566 C.3       3 UNK         0.0319 
     28 CB         24.2223   22.0151    1.2887 C.3       3 UNK        -0.2001 
     29 N          24.2767   24.3936    0.7502 N.am      3 UNK        -0.4354 
     30 C          23.9936   25.5239    0.0897 C.2       2 UNK         0.4964 
     31 O          23.6131   25.5551   -1.0805 O.2       2 UNK        -0.5047 
     32 CA         24.1874   26.8466    0.8516 C.3       2 UNK         0.0288 
     33 CB         22.8422   27.3596    1.3895 C.3       2 UNK        -0.2113 
     34 N          25.1536   26.7944    1.9579 N.am      2 UNK        -0.4145 
     35 C          26.4544   26.4805    1.8739 C.2       1 UNK         0.5006 
     36 O          26.9920   26.1114    0.8258 O.2       1 UNK        -0.5103 
     37 C          28.8023   27.9895   -2.0815 C.2       5 UNK         0.5055 
     38 O          28.9981   28.9442   -2.8350 O.2       5 UNK        -0.5220 
     39 N          27.8846   27.9918   -1.1007 N.am      6 UNK        -0.4450 
     40 CA         27.1159   29.1537   -0.6252 C.3       6 UNK         0.0367 
     41 CB         26.1604   29.6938   -1.7101 C.3       6 UNK        -0.1929 
     42 C          28.0093   30.2423    0.0048 C.2       6 UNK         0.5070 
     43 O          27.6489   31.4201   -0.0017 O.2       6 UNK        -0.5237 
     44 N          29.1600   29.8217    0.5468 N.am      7 UNK        -0.4739 
     45 CA         30.1207   30.6687    1.2463 C.3       7 UNK         0.0276 
     46 CB         31.4808   29.9510    1.2813 C.3       7 UNK        -0.1927 
     47 C          29.6425   30.9592    2.6746 C.2       7 UNK         0.5013 
     48 O          29.1176   30.0569    3.3312 O.2       7 UNK        -0.5193 
     49 N          29.8673   32.1960    3.1353 N.am      8 UNK        -0.4253 
     50 CA         29.6333   32.6113    4.5219 C.3       8 UNK         0.0242 
     51 CB         29.4012   34.1307    4.5641 C.3       8 UNK        -0.2000 
     52 C          30.7929   32.2165    5.4556 C.2       8 UNK         0.4948 
     53 O          30.5780   32.0910    6.6621 O.2       8 UNK        -0.5275 
     54 N          31.9957   32.0398    4.8896 N.am      9 UNK        -0.4246 
     55 CA         33.1855   31.5395    5.5786 C.3       9 UNK         0.0261 
     56 CB         34.4226   31.8357    4.7135 C.3       9 UNK        -0.1959 
     57 C          33.0729   30.0305    5.8462 C.2       9 UNK         0.5033 
     58 O          32.4050   29.3257    5.0891 O.2       9 UNK        -0.5390 
     59 N          33.7551   29.5578    6.8957 N.am      10 UNK        -0.4215 
     60 CA         33.7635   28.1472    7.2940 C.3       10 UNK         0.0240 
     61 CB         34.1041   28.0504    8.7909 C.3       10 UNK        -0.1982 
     62 C          34.7269   27.2721    6.4714 C.2       10 UNK         0.4970 
     63 O          34.5146   26.0608    6.4156 O.2       10 UNK        -0.4916 
     64 N          35.7736   27.8785    5.8871 N.am      11 UNK        -0.4279 
     65 CA         36.8856   27.2010    5.1872 C.3       11 UNK         0.1003 
     66 C          37.7527   26.2710    6.0979 C.2       11 UNK         0.5709 
     67 N          37.7091   26.4098    7.4182 N.am      11 UNK        -0.7358 
     68 O          38.5135   25.4390    5.6084 O.2       11 UNK        -0.4999 
     69 C69        36.4414   26.5246    3.8519 C.3       12 UNK        -0.0954 
     70 S70        36.3302   27.7064    2.4662 S.3       12 UNK        -0.2268 
     71 C71        34.5761   28.1837    2.4641 C.3       12 UNK         0.0203 
     72 H72        26.1125   30.6107    4.1481 H         1 UNK         0.0888 
     73 H73        25.5378   30.0744    5.7316 H         1 UNK         0.0888 
     74 H74        27.2637   30.0581    5.3718 H         1 UNK         0.0888 
     75 H75        27.9984   28.5853    3.5884 H         1 UNK         0.3017 
     76 H76        26.8616   25.9286    3.8856 H         1 UNK         0.0873 
     77 H77        28.8223   25.2211    2.4959 H         1 UNK         0.0745 
     78 H78        29.2690   26.8967    2.2575 H         1 UNK         0.0745 
     79 H79        31.6396   24.8116    4.9839 H         1 UNK         0.0705 
     80 H80        30.5832   24.0220    3.8390 H         1 UNK         0.0705 
     81 H81        32.8600   26.9757    4.1939 H         1 UNK         0.1334 
     82 H82        34.2034   26.8105    0.1253 H         1 UNK         0.1417 
     83 H83        31.1641   24.1109    1.5108 H         1 UNK         0.1562 
     84 H84        31.7431   24.0583   -0.7691 H         1 UNK         0.0748 
     85 H85        33.4770   24.1536   -0.8806 H         1 UNK         0.0748 
     86 H86        31.4334   28.0706   -1.8819 H         1 UNK         0.0940 
     87 H87        31.0222   27.1169   -0.4931 H         1 UNK         0.0940 
     88 H88        29.8611   26.5920   -3.2855 H         1 UNK         0.0703 
     89 H89        29.6554   25.1126   -0.8846 H         1 UNK         0.3081 
     90 H90        27.6195   22.8010   -2.2995 H         1 UNK         0.0719 
     91 H91        29.0200   23.5944    0.3189 H         1 UNK         0.0809 
     92 H92        28.5635   21.9690   -0.1624 H         1 UNK         0.0809 
     93 H93        29.7877   22.8188   -1.0764 H         1 UNK         0.0809 
     94 H94        26.4377   24.4708   -0.1432 H         1 UNK         0.2990 
     95 H95        23.3724   22.9473   -0.4481 H         1 UNK         0.0690 
     96 H96        23.3396   22.1524    1.9137 H         1 UNK         0.0788 
     97 H97        25.1025   22.0715    1.9305 H         1 UNK         0.0788 
     98 H98        24.1768   21.0016    0.8873 H         1 UNK         0.0788 
     99 H99        24.5657   24.4638    1.7148 H         1 UNK         0.2993 
    100 H100       24.5565   27.5699    0.1236 H         1 UNK         0.0949 
    101 H101       22.1041   27.4391    0.5899 H         1 UNK         0.0767 
    102 H102       22.4317   26.6928    2.1488 H         1 UNK         0.0767 
    103 H103       22.9444   28.3504    1.8330 H         1 UNK         0.0767 
    104 H104       24.8233   27.1057    2.8690 H         1 UNK         0.3013 
    105 H105       27.7622   27.1463   -0.5477 H         1 UNK         0.3121 
    106 H106       26.4963   28.7984    0.1951 H         1 UNK         0.0774 
    107 H107       25.4802   30.4377   -1.2939 H         1 UNK         0.0815 
    108 H108       26.6996   30.1729   -2.5273 H         1 UNK         0.0815 
    109 H109       25.5488   28.8962   -2.1318 H         1 UNK         0.0815 
    110 H110       29.3507   28.8323    0.5497 H         1 UNK         0.2987 
    111 H111       30.2285   31.6070    0.6973 H         1 UNK         0.0949 
    112 H112       31.4252   29.0103    1.8323 H         1 UNK         0.0806 
    113 H113       31.8442   29.7313    0.2774 H         1 UNK         0.0806 
    114 H114       32.2365   30.5656    1.7717 H         1 UNK         0.0806 
    115 H115       30.2723   32.8849    2.5171 H         1 UNK         0.3010 
    116 H116       28.7308   32.1200    4.8922 H         1 UNK         0.0829 
    117 H117       28.5454   34.4182    3.9530 H         1 UNK         0.0813 
    118 H118       29.1967   34.4649    5.5824 H         1 UNK         0.0813 
    119 H119       30.2708   34.6846    4.2084 H         1 UNK         0.0813 
    120 H120       32.0637   32.1285    3.8881 H         1 UNK         0.3038 
    121 H121       33.2825   32.0646    6.5314 H         1 UNK         0.0769 
    122 H122       34.5235   32.9035    4.5178 H         1 UNK         0.0811 
    123 H123       34.3768   31.3213    3.7524 H         1 UNK         0.0811 
    124 H124       35.3378   31.5131    5.2112 H         1 UNK         0.0811 
    125 H125       34.2782   30.2011    7.4733 H         1 UNK         0.3204 
    126 H126       32.7593   27.7398    7.1528 H         1 UNK         0.0748 
    127 H127       33.3748   28.5871    9.3981 H         1 UNK         0.0771 
    128 H128       34.0989   27.0123    9.1269 H         1 UNK         0.0771 
    129 H129       35.0908   28.4596    9.0114 H         1 UNK         0.0771 
    130 H130       35.8728   28.8760    5.9973 H         1 UNK         0.2980 
    131 H131       37.5828   27.9986    4.9286 H         1 UNK         0.0545 
    132 H132       38.2843   25.8148    7.9934 H         1 UNK         0.3459 
    133 H133       37.1118   27.0989    7.8438 H         1 UNK         0.3459 
    134 H134       35.5064   25.9778    3.9679 H         1 UNK         0.0616 
    135 H135       37.1653   25.7779    3.5238 H         1 UNK         0.0616 
    136 H136       34.3428   28.6542    3.4184 H         1 UNK         0.0634 
    137 H137       34.4231   28.9494    1.7027 H         1 UNK         0.0634 
@<TRIPOS>BOND
     1    1    2 1    
     2    1   72 1    
     3    1   73 1    
     4    1   74 1    
     5    2    3 2    
     6    2    4 am   BACKBONE|DICT|INTERRES
     7    4    5 1    
     8    4   75 1    
     9    5    6 1    
    10    5   35 1    
    11    5   76 1    
    12    6    7 1    
    13    6   77 1    
    14    6   78 1    
    15    7    8 1    
    16    8    9 1    
    17    8   79 1    
    18    8   80 1    
    19    9   10 ar   
    20    9   14 ar   
    21   10   11 ar   
    22   10   81 1    
    23   11   12 ar   
    24   11   71 1    
    25   12   13 ar   
    26   12   82 1    
    27   13   14 ar   
    28   13   15 1    
    29   14   83 1    
    30   15   16 1    
    31   15   84 1    
    32   15   85 1    
    33   16   17 1    
    34   17   18 1    
    35   17   86 1    
    36   17   87 1    
    37   18   19 1    
    38   18   37 1    
    39   18   88 1    
    40   19   20 am   BACKBONE|DICT|INTERRES
    41   19   89 1    
    42   20   21 2    
    43   20   22 1    
    44   22   23 1    
    45   22   24 1    
    46   22   90 1    
    47   23   91 1    
    48   23   92 1    
    49   23   93 1    
    50   24   25 am   BACKBONE|DICT|INTERRES
    51   24   94 1    
    52   25   26 2    
    53   25   27 1    
    54   27   28 1    
    55   27   29 1    
    56   27   95 1    
    57   28   96 1    
    58   28   97 1    
    59   28   98 1    
    60   29   30 am   BACKBONE|DICT|INTERRES
    61   29   99 1    
    62   30   31 2    
    63   30   32 1    
    64   32   33 1    
    65   32   34 1    
    66   32  100 1    
    67   33  101 1    
    68   33  102 1    
    69   33  103 1    
    70   34   35 am   BACKBONE|DICT|INTERRES
    71   34  104 1    
    72   35   36 2    
    73   37   38 2    
    74   37   39 am   BACKBONE|DICT|INTERRES
    75   39   40 1    
    76   39  105 1    
    77   40   41 1    
    78   40   42 1    
    79   40  106 1    
    80   41  107 1    
    81   41  108 1    
    82   41  109 1    
    83   42   43 2    
    84   42   44 am   BACKBONE|DICT|INTERRES
    85   44   45 1    
    86   44  110 1    
    87   45   46 1    
    88   45   47 1    
    89   45  111 1    
    90   46  112 1    
    91   46  113 1    
    92   46  114 1    
    93   47   48 2    
    94   47   49 am   BACKBONE|DICT|INTERRES
    95   49   50 1    
    96   49  115 1    
    97   50   51 1    
    98   50   52 1    
    99   50  116 1    
   100   51  117 1    
   101   51  118 1    
   102   51  119 1    
   103   52   53 2    
   104   52   54 am   BACKBONE|DICT|INTERRES
   105   54   55 1    
   106   54  120 1    
   107   55   56 1    
   108   55   57 1    
   109   55  121 1    
   110   56  122 1    
   111   56  123 1    
   112   56  124 1    
   113   57   58 2    
   114   57   59 am   BACKBONE|DICT|INTERRES
   115   59   60 1    
   116   59  125 1    
   117   60   61 1    
   118   60   62 1    
   119   60  126 1    
   120   61  127 1    
   121   61  128 1    
   122   61  129 1    
   123   62   63 2    
   124   62   64 am   BACKBONE|DICT|INTERRES
   125   64   65 1    
   126   64  130 1    
   127   65   66 1    
   128   65   69 1    
   129   65  131 1    
   130   66   67 am   BACKBONE|DICT|INTERRES
   131   66   68 2    
   132   67  132 1    
   133   67  133 1    
   134   69   70 1    
   135   69  134 1    
   136   69  135 1    
   137   70   71 1    
   138   71  136 1    
   139   71  137 1    
@<TRIPOS>SUBSTRUCTURE
     1 UNK         1 GROUP             0       ****    0 ROOT    
