@<TRIPOS>MOLECULE
3R136
137   139    1
SMALL
USER_CHARGES


@<TRIPOS>ATOM
      1 CA         26.7896   20.8687   -2.5570 C.3       0 UNK        -0.1979 
      2 C          27.5012   22.0579   -1.9309 C.2       0 UNK         0.4864 
      3 O          27.0595   23.1951   -2.1033 O.2       0 UNK        -0.5359 
      4 N          28.5887   21.8064   -1.1866 N.am      1 UNK        -0.4318 
      5 CA         29.4245   22.8217   -0.5273 C.3       1 UNK         0.0824 
      6 C6         30.7037   22.2045    0.0905 C.3       12 UNK        -0.0944 
      7 S7         30.3692   21.0297    1.4527 S.3       12 UNK        -0.2672 
      8 C8         31.8803   21.1658    2.4618 C.3       12 UNK         0.0333 
      9 C9         32.1142   22.5689    3.0107 C.ar      12 UNK        -0.0807 
     10 C10        33.2341   23.2992    2.6008 C.ar      12 UNK        -0.0894 
     11 C11        33.4836   24.5688    3.1267 C.ar      12 UNK        -0.0804 
     12 C12        32.6041   25.1098    4.0685 C.ar      12 UNK        -0.0824 
     13 C13        31.4737   24.3969    4.4824 C.ar      12 UNK        -0.0762 
     14 C14        31.2363   23.1241    3.9490 C.ar      12 UNK        -0.0782 
     15 C15        30.5315   24.9742    5.5368 C.3       12 UNK         0.0230 
     16 S16        30.0549   26.7105    5.2297 S.3       12 UNK        -0.2608 
     17 C17        29.0376   26.5391    3.7278 C.3       12 UNK        -0.0989 
     18 CA         28.9762   27.8500    2.9027 C.3       5 UNK         0.0716 
     19 N          28.8488   27.5752    1.4671 N.am      5 UNK        -0.4135 
     20 C          28.8886   28.4926    0.4900 C.2       4 UNK         0.5031 
     21 O          29.0522   29.6957    0.6790 O.2       4 UNK        -0.5229 
     22 CA         28.6390   27.9911   -0.9406 C.3       4 UNK         0.0329 
     23 CB         29.9041   27.3539   -1.5381 C.3       4 UNK        -0.2001 
     24 N          27.5231   27.0453   -0.9901 N.am      4 UNK        -0.4303 
     25 C          26.2411   27.3866   -0.7928 C.2       3 UNK         0.5044 
     26 O          25.8561   28.5454   -0.6367 O.2       3 UNK        -0.5152 
     27 CA         25.2262   26.2349   -0.7058 C.3       3 UNK         0.0319 
     28 CB         24.7769   25.7949   -2.1078 C.3       3 UNK        -0.2001 
     29 N          25.7543   25.0843    0.0335 N.am      3 UNK        -0.4354 
     30 C          26.0056   25.0982    1.3528 C.2       2 UNK         0.4964 
     31 O          25.7792   26.0658    2.0769 O.2       2 UNK        -0.5047 
     32 CA         26.6610   23.8516    1.9726 C.3       2 UNK         0.0288 
     33 CB         25.5885   22.8684    2.4660 C.3       2 UNK        -0.2113 
     34 N          27.5770   23.1566    1.0685 N.am      2 UNK        -0.4145 
     35 C          28.6605   23.6973    0.4906 C.2       1 UNK         0.5006 
     36 O          29.0349   24.8521    0.6964 O.2       1 UNK        -0.5103 
     37 C          27.8810   28.8059    3.4294 C.2       5 UNK         0.5055 
     38 O          28.1715   29.6687    4.2572 O.2       5 UNK        -0.5220 
     39 N          26.6461   28.6588    2.9275 N.am      6 UNK        -0.4450 
     40 CA         25.5254   29.5569    3.2130 C.3       6 UNK         0.0367 
     41 CB         24.2180   28.9227    2.7123 C.3       6 UNK        -0.1929 
     42 C          25.7073   30.9621    2.6111 C.2       6 UNK         0.5070 
     43 O          25.2635   31.9356    3.2208 O.2       6 UNK        -0.5237 
     44 N          26.3438   31.0496    1.4345 N.am      7 UNK        -0.4739 
     45 CA         26.6469   32.3102    0.7537 C.3       7 UNK         0.0276 
     46 CB         26.9170   32.0467   -0.7370 C.3       7 UNK        -0.1927 
     47 C          27.8205   33.0600    1.4064 C.2       7 UNK         0.5013 
     48 O          27.7237   34.2730    1.5996 O.2       7 UNK        -0.5193 
     49 N          28.8946   32.3360    1.7436 N.am      8 UNK        -0.4253 
     50 CA         30.0808   32.8584    2.4157 C.3       8 UNK         0.0242 
     51 CB         31.0891   33.3826    1.3764 C.3       8 UNK        -0.2000 
     52 C          30.6791   31.7432    3.2793 C.2       8 UNK         0.4948 
     53 O          31.1964   30.7664    2.7347 O.2       8 UNK        -0.5275 
     54 N          30.5806   31.8979    4.6054 N.am      9 UNK        -0.4246 
     55 CA         31.0709   30.9304    5.5889 C.3       9 UNK         0.0261 
     56 CB         30.4872   31.2768    6.9688 C.3       9 UNK        -0.1959 
     57 C          32.6072   30.8838    5.6470 C.2       9 UNK         0.5033 
     58 O          33.2546   31.9168    5.4540 O.2       9 UNK        -0.5390 
     59 N          33.1300   29.6908    5.9678 N.am      10 UNK        -0.4215 
     60 CA         34.5413   29.2853    6.0403 C.3       10 UNK         0.0240 
     61 CB         35.3663   30.1981    6.9706 C.3       10 UNK        -0.1982 
     62 C          35.1986   29.1469    4.6548 C.2       10 UNK         0.4970 
     63 O          34.8889   29.8965    3.7272 O.2       10 UNK        -0.4916 
     64 N          36.0955   28.1629    4.5415 N.am      11 UNK        -0.4279 
     65 CA         36.8072   27.8230    3.3016 C.3       11 UNK         0.1003 
     66 C          37.9664   28.8077    2.9884 C.2       11 UNK         0.5709 
     67 N          38.3407   28.9413    1.7230 N.am      11 UNK        -0.7358 
     68 O          38.5527   29.4216    3.8789 O.2       11 UNK        -0.4999 
     69 C69        37.3036   26.3496    3.3045 C.3       12 UNK        -0.0954 
     70 S70        36.0713   25.1249    3.8739 S.3       12 UNK        -0.2268 
     71 C71        34.7078   25.3569    2.6920 C.3       12 UNK         0.0203 
     72 H72        25.7600   20.8196   -2.2039 H         1 UNK         0.0888 
     73 H73        26.7734   20.9717   -3.6416 H         1 UNK         0.0888 
     74 H74        27.2783   19.9257   -2.3127 H         1 UNK         0.0888 
     75 H75        28.8940   20.8511   -1.0616 H         1 UNK         0.3017 
     76 H76        29.7480   23.5038   -1.3165 H         1 UNK         0.0873 
     77 H77        31.3574   23.0041    0.4416 H         1 UNK         0.0745 
     78 H78        31.2728   21.6807   -0.6791 H         1 UNK         0.0745 
     79 H79        32.7310   20.8353    1.8635 H         1 UNK         0.0705 
     80 H80        31.8073   20.4674    3.2966 H         1 UNK         0.0705 
     81 H81        33.9209   22.8755    1.8806 H         1 UNK         0.1334 
     82 H82        32.8056   26.0869    4.4855 H         1 UNK         0.1417 
     83 H83        30.3737   22.5553    4.2692 H         1 UNK         0.1562 
     84 H84        31.0244   24.9161    6.5080 H         1 UNK         0.0748 
     85 H85        29.6239   24.3736    5.6165 H         1 UNK         0.0748 
     86 H86        28.0426   26.1816    3.9996 H         1 UNK         0.0940 
     87 H87        29.4838   25.7455    3.1275 H         1 UNK         0.0940 
     88 H88        29.9302   28.3701    3.0117 H         1 UNK         0.0703 
     89 H89        28.7690   26.5966    1.1988 H         1 UNK         0.3081 
     90 H90        28.3767   28.8552   -1.5553 H         1 UNK         0.0719 
     91 H91        29.7401   27.0386   -2.5686 H         1 UNK         0.0809 
     92 H92        30.7286   28.0681   -1.5460 H         1 UNK         0.0809 
     93 H93        30.2358   26.4847   -0.9702 H         1 UNK         0.0809 
     94 H94        27.7541   26.0656   -1.0763 H         1 UNK         0.2990 
     95 H95        24.3490   26.6055   -0.1707 H         1 UNK         0.0690 
     96 H96        24.3372   26.6300   -2.6548 H         1 UNK         0.0788 
     97 H97        24.0231   25.0093   -2.0546 H         1 UNK         0.0788 
     98 H98        25.6107   25.4194   -2.7022 H         1 UNK         0.0788 
     99 H99        26.0135   24.2705   -0.5130 H         1 UNK         0.2993 
    100 H100       27.2438   24.1821    2.8341 H         1 UNK         0.0949 
    101 H101       24.9911   22.4749    1.6424 H         1 UNK         0.0767 
    102 H102       26.0356   22.0242    2.9915 H         1 UNK         0.0767 
    103 H103       24.9041   23.3554    3.1623 H         1 UNK         0.0767 
    104 H104       27.3557   22.1979    0.8432 H         1 UNK         0.3013 
    105 H105       26.4481   27.8575    2.3343 H         1 UNK         0.3121 
    106 H106       25.4542   29.6699    4.2969 H         1 UNK         0.0774 
    107 H107       24.2392   28.7519    1.6353 H         1 UNK         0.0815 
    108 H108       23.3642   29.5675    2.9246 H         1 UNK         0.0815 
    109 H109       24.0298   27.9656    3.1990 H         1 UNK         0.0815 
    110 H110       26.6749   30.2005    0.9942 H         1 UNK         0.2987 
    111 H111       25.7667   32.9536    0.8219 H         1 UNK         0.0949 
    112 H112       27.7960   31.4204   -0.8892 H         1 UNK         0.0806 
    113 H113       26.0695   31.5514   -1.2114 H         1 UNK         0.0806 
    114 H114       27.0884   32.9819   -1.2715 H         1 UNK         0.0806 
    115 H115       28.9148   31.3397    1.5229 H         1 UNK         0.3010 
    116 H116       29.7948   33.6874    3.0671 H         1 UNK         0.0829 
    117 H117       30.6765   34.2160    0.8078 H         1 UNK         0.0813 
    118 H118       31.9992   33.7373    1.8617 H         1 UNK         0.0813 
    119 H119       31.3770   32.6040    0.6686 H         1 UNK         0.0813 
    120 H120       30.1616   32.7395    4.9721 H         1 UNK         0.3038 
    121 H121       30.7027   29.9443    5.2962 H         1 UNK         0.0769 
    122 H122       30.8059   32.2641    7.3059 H         1 UNK         0.0811 
    123 H123       30.8078   30.5560    7.7221 H         1 UNK         0.0811 
    124 H124       29.3971   31.2603    6.9517 H         1 UNK         0.0811 
    125 H125       32.4749   28.9326    6.1011 H         1 UNK         0.3204 
    126 H126       34.5236   28.2918    6.4920 H         1 UNK         0.0748 
    127 H127       36.3608   29.7832    7.1388 H         1 UNK         0.0771 
    128 H128       35.5044   31.1942    6.5495 H         1 UNK         0.0771 
    129 H129       34.8911   30.3072    7.9455 H         1 UNK         0.0771 
    130 H130       36.3291   27.6039    5.3483 H         1 UNK         0.2980 
    131 H131       36.0949   27.9271    2.4817 H         1 UNK         0.0545 
    132 H132       39.1008   29.5654    1.5016 H         1 UNK         0.3459 
    133 H133       37.8776   28.4356    0.9840 H         1 UNK         0.3459 
    134 H134       37.6349   26.0601    2.3057 H         1 UNK         0.0616 
    135 H135       38.1756   26.2476    3.9533 H         1 UNK         0.0616 
    136 H136       35.0328   25.0519    1.6961 H         1 UNK         0.0634 
    137 H137       34.4392   26.4110    2.6251 H         1 UNK         0.0634 
@<TRIPOS>BOND
     1    1    2 1    
     2    1   72 1    
     3    1   73 1    
     4    1   74 1    
     5    2    3 2    
     6    2    4 am   BACKBONE|DICT|INTERRES
     7    4    5 1    
     8    4   75 1    
     9    5    6 1    
    10    5   35 1    
    11    5   76 1    
    12    6    7 1    
    13    6   77 1    
    14    6   78 1    
    15    7    8 1    
    16    8    9 1    
    17    8   79 1    
    18    8   80 1    
    19    9   10 ar   
    20    9   14 ar   
    21   10   11 ar   
    22   10   81 1    
    23   11   12 ar   
    24   11   71 1    
    25   12   13 ar   
    26   12   82 1    
    27   13   14 ar   
    28   13   15 1    
    29   14   83 1    
    30   15   16 1    
    31   15   84 1    
    32   15   85 1    
    33   16   17 1    
    34   17   18 1    
    35   17   86 1    
    36   17   87 1    
    37   18   19 1    
    38   18   37 1    
    39   18   88 1    
    40   19   20 am   BACKBONE|DICT|INTERRES
    41   19   89 1    
    42   20   21 2    
    43   20   22 1    
    44   22   23 1    
    45   22   24 1    
    46   22   90 1    
    47   23   91 1    
    48   23   92 1    
    49   23   93 1    
    50   24   25 am   BACKBONE|DICT|INTERRES
    51   24   94 1    
    52   25   26 2    
    53   25   27 1    
    54   27   28 1    
    55   27   29 1    
    56   27   95 1    
    57   28   96 1    
    58   28   97 1    
    59   28   98 1    
    60   29   30 am   BACKBONE|DICT|INTERRES
    61   29   99 1    
    62   30   31 2    
    63   30   32 1    
    64   32   33 1    
    65   32   34 1    
    66   32  100 1    
    67   33  101 1    
    68   33  102 1    
    69   33  103 1    
    70   34   35 am   BACKBONE|DICT|INTERRES
    71   34  104 1    
    72   35   36 2    
    73   37   38 2    
    74   37   39 am   BACKBONE|DICT|INTERRES
    75   39   40 1    
    76   39  105 1    
    77   40   41 1    
    78   40   42 1    
    79   40  106 1    
    80   41  107 1    
    81   41  108 1    
    82   41  109 1    
    83   42   43 2    
    84   42   44 am   BACKBONE|DICT|INTERRES
    85   44   45 1    
    86   44  110 1    
    87   45   46 1    
    88   45   47 1    
    89   45  111 1    
    90   46  112 1    
    91   46  113 1    
    92   46  114 1    
    93   47   48 2    
    94   47   49 am   BACKBONE|DICT|INTERRES
    95   49   50 1    
    96   49  115 1    
    97   50   51 1    
    98   50   52 1    
    99   50  116 1    
   100   51  117 1    
   101   51  118 1    
   102   51  119 1    
   103   52   53 2    
   104   52   54 am   BACKBONE|DICT|INTERRES
   105   54   55 1    
   106   54  120 1    
   107   55   56 1    
   108   55   57 1    
   109   55  121 1    
   110   56  122 1    
   111   56  123 1    
   112   56  124 1    
   113   57   58 2    
   114   57   59 am   BACKBONE|DICT|INTERRES
   115   59   60 1    
   116   59  125 1    
   117   60   61 1    
   118   60   62 1    
   119   60  126 1    
   120   61  127 1    
   121   61  128 1    
   122   61  129 1    
   123   62   63 2    
   124   62   64 am   BACKBONE|DICT|INTERRES
   125   64   65 1    
   126   64  130 1    
   127   65   66 1    
   128   65   69 1    
   129   65  131 1    
   130   66   67 am   BACKBONE|DICT|INTERRES
   131   66   68 2    
   132   67  132 1    
   133   67  133 1    
   134   69   70 1    
   135   69  134 1    
   136   69  135 1    
   137   70   71 1    
   138   71  136 1    
   139   71  137 1    
@<TRIPOS>SUBSTRUCTURE
     1 UNK         1 GROUP             0       ****    0 ROOT    
