@<TRIPOS>MOLECULE
3R136
137   139    1
SMALL
USER_CHARGES


@<TRIPOS>ATOM
      1 CA         30.1350   18.5487    0.0029 C.3       0 UNK        -0.1979 
      2 C          30.3643   19.8907   -0.6767 C.2       0 UNK         0.4864 
      3 O          30.6196   19.9311   -1.8815 O.2       0 UNK        -0.5359 
      4 N          30.2808   20.9870    0.0869 N.am      1 UNK        -0.4318 
      5 CA         30.4146   22.3603   -0.4062 C.3       1 UNK         0.0824 
      6 C6         30.7157   23.3605    0.7378 C.3       12 UNK        -0.0944 
      7 S7         32.3760   23.1058    1.4514 S.3       12 UNK        -0.2672 
      8 C8         32.0254   22.1505    2.9629 C.3       12 UNK         0.0333 
      9 C9         31.3704   22.9974    4.0445 C.ar      12 UNK        -0.0807 
     10 C10        32.1339   23.9144    4.7726 C.ar      12 UNK        -0.0894 
     11 C11        31.5424   24.6941    5.7708 C.ar      12 UNK        -0.0804 
     12 C12        30.1840   24.5333    6.0584 C.ar      12 UNK        -0.0824 
     13 C13        29.4113   23.6173    5.3392 C.ar      12 UNK        -0.0762 
     14 C14        30.0092   22.8538    4.3318 C.ar      12 UNK        -0.0782 
     15 C15        27.9357   23.4330    5.6589 C.3       12 UNK         0.0230 
     16 S16        26.8838   24.5338    4.6612 S.3       12 UNK        -0.2608 
     17 C17        26.9879   26.1094    5.5795 C.3       12 UNK        -0.0989 
     18 CA         27.7046   27.2280    4.7830 C.3       5 UNK         0.0716 
     19 N          27.0467   27.4816    3.4969 N.am      5 UNK        -0.4135 
     20 C          27.3650   28.4203    2.5951 C.2       4 UNK         0.5031 
     21 O          28.2771   29.2403    2.7266 O.2       4 UNK        -0.5229 
     22 CA         26.4605   28.4853    1.3525 C.3       4 UNK         0.0329 
     23 CB         25.6538   29.7937    1.3377 C.3       4 UNK        -0.2001 
     24 N          27.2009   28.3675    0.0956 N.am      4 UNK        -0.4303 
     25 C          27.8536   27.2724   -0.3152 C.2       3 UNK         0.5044 
     26 O          27.9690   26.2441    0.3569 O.2       3 UNK        -0.5152 
     27 CA         28.4354   27.3385   -1.7410 C.3       3 UNK         0.0319 
     28 CB         29.7431   28.1440   -1.7966 C.3       3 UNK        -0.2001 
     29 N          28.6858   26.0028   -2.2809 N.am      3 UNK        -0.4354 
     30 C          27.7498   25.1972   -2.8008 C.2       2 UNK         0.4964 
     31 O          26.5738   25.5250   -2.9650 O.2       2 UNK        -0.5047 
     32 CA         28.2057   23.7890   -3.2209 C.3       2 UNK         0.0288 
     33 CB         28.6403   23.7813   -4.6961 C.3       2 UNK        -0.2113 
     34 N          29.3020   23.2819   -2.3897 N.am      2 UNK        -0.4145 
     35 C          29.1360   22.7654   -1.1641 C.2       1 UNK         0.5006 
     36 O          28.0366   22.6075   -0.6267 O.2       1 UNK        -0.5103 
     37 C          27.7909   28.5101    5.6322 C.2       5 UNK         0.5055 
     38 O          26.7526   29.1082    5.9230 O.2       5 UNK        -0.5220 
     39 N          29.0192   28.9157    5.9832 N.am      6 UNK        -0.4450 
     40 CA         29.4207   30.1044    6.7525 C.3       6 UNK         0.0367 
     41 CB         28.8510   30.0564    8.1835 C.3       6 UNK        -0.1929 
     42 C          29.1258   31.4660    6.0892 C.2       6 UNK         0.5070 
     43 O          29.8820   32.4109    6.3157 O.2       6 UNK        -0.5237 
     44 N          28.0447   31.5628    5.3070 N.am      7 UNK        -0.4739 
     45 CA         27.6151   32.7704    4.6030 C.3       7 UNK         0.0276 
     46 CB         26.1614   32.5995    4.1372 C.3       7 UNK        -0.1927 
     47 C          28.5298   33.1385    3.4243 C.2       7 UNK         0.5013 
     48 O          28.7926   34.3254    3.2226 O.2       7 UNK        -0.5193 
     49 N          29.0020   32.1342    2.6725 N.am      8 UNK        -0.4253 
     50 CA         29.9862   32.3182    1.6062 C.3       8 UNK         0.0242 
     51 CB         29.8588   31.1717    0.5915 C.3       8 UNK        -0.2000 
     52 C          31.4018   32.3490    2.1969 C.2       8 UNK         0.4948 
     53 O          31.6818   31.6129    3.1451 O.2       8 UNK        -0.5275 
     54 N          32.2928   33.1433    1.5872 N.am      9 UNK        -0.4246 
     55 CA         33.7025   33.2738    1.9844 C.3       9 UNK         0.0261 
     56 CB         34.3612   34.3978    1.1681 C.3       9 UNK        -0.1959 
     57 C          34.5115   31.9684    1.8556 C.2       9 UNK         0.5033 
     58 O          35.4603   31.7652    2.6139 O.2       9 UNK        -0.5390 
     59 N          34.1046   31.1016    0.9191 N.am      10 UNK        -0.4215 
     60 CA         34.6410   29.7529    0.7254 C.3       10 UNK         0.0240 
     61 CB         34.4132   29.3453   -0.7413 C.3       10 UNK        -0.1982 
     62 C          34.0240   28.7051    1.6754 C.2       10 UNK         0.4970 
     63 O          34.4641   27.5551    1.6449 O.2       10 UNK        -0.4916 
     64 N          33.0189   29.0941    2.4743 N.am      11 UNK        -0.4279 
     65 CA         32.1649   28.2111    3.2801 C.3       11 UNK         0.1003 
     66 C          31.2645   27.2889    2.4028 C.2       11 UNK         0.5709 
     67 N          30.7102   26.2182    2.9485 N.am      11 UNK        -0.7358 
     68 O          31.0271   27.5606    1.2298 O.2       11 UNK        -0.4999 
     69 C69        32.9581   27.4874    4.4107 C.3       12 UNK        -0.0954 
     70 S70        32.0255   27.4069    5.9754 S.3       12 UNK        -0.2268 
     71 C71        32.3652   25.7125    6.5417 C.3       12 UNK         0.0203 
     72 H72        29.2848   18.0394   -0.4500 H         1 UNK         0.0888 
     73 H73        31.0137   17.9147   -0.1128 H         1 UNK         0.0888 
     74 H74        29.9356   18.6595    1.0687 H         1 UNK         0.0888 
     75 H75        30.0250   20.8957    1.0581 H         1 UNK         0.3017 
     76 H76        31.2526   22.3872   -1.1068 H         1 UNK         0.0873 
     77 H77        30.6880   24.3864    0.3638 H         1 UNK         0.0745 
     78 H78        29.9536   23.3083    1.5166 H         1 UNK         0.0745 
     79 H79        31.4101   21.2843    2.7184 H         1 UNK         0.0705 
     80 H80        32.9658   21.7513    3.3457 H         1 UNK         0.0705 
     81 H81        33.1860   24.0286    4.5488 H         1 UNK         0.1334 
     82 H82        29.7304   25.1264    6.8404 H         1 UNK         0.1417 
     83 H83        29.4123   22.1442    3.7753 H         1 UNK         0.1562 
     84 H84        27.7474   23.5919    6.7218 H         1 UNK         0.0748 
     85 H85        27.6442   22.4011    5.4573 H         1 UNK         0.0748 
     86 H86        27.4851   25.9426    6.5364 H         1 UNK         0.0940 
     87 H87        25.9689   26.4137    5.8284 H         1 UNK         0.0940 
     88 H88        28.7171   26.8909    4.5634 H         1 UNK         0.0703 
     89 H89        26.2817   26.8585    3.2857 H         1 UNK         0.3081 
     90 H90        25.7512   27.6556    1.3896 H         1 UNK         0.0719 
     91 H91        26.3039   30.6669    1.2667 H         1 UNK         0.0809 
     92 H92        24.9585   29.8236    0.4987 H         1 UNK         0.0809 
     93 H93        25.0622   29.8955    2.2484 H         1 UNK         0.0809 
     94 H94        27.1825   29.1740   -0.5103 H         1 UNK         0.2990 
     95 H95        27.7025   27.8396   -2.3773 H         1 UNK         0.0690 
     96 H96        30.0640   28.3012   -2.8264 H         1 UNK         0.0788 
     97 H97        30.5531   27.6376   -1.2729 H         1 UNK         0.0788 
     98 H98        29.6234   29.1274   -1.3440 H         1 UNK         0.0788 
     99 H99        29.6141   25.6337   -2.1453 H         1 UNK         0.2993 
    100 H100       27.3476   23.1207   -3.1165 H         1 UNK         0.0949 
    101 H101       27.8332   24.1314   -5.3414 H         1 UNK         0.0767 
    102 H102       29.5005   24.4292   -4.8696 H         1 UNK         0.0767 
    103 H103       28.9039   22.7761   -5.0263 H         1 UNK         0.0767 
    104 H104       30.2334   23.3450   -2.7757 H         1 UNK         0.3013 
    105 H105       29.8001   28.3580    5.6634 H         1 UNK         0.3121 
    106 H106       30.5071   30.0411    6.8337 H         1 UNK         0.0774 
    107 H107       29.2356   30.8830    8.7823 H         1 UNK         0.0815 
    108 H108       27.7632   30.1309    8.1924 H         1 UNK         0.0815 
    109 H109       29.1296   29.1326    8.6905 H         1 UNK         0.0815 
    110 H110       27.4525   30.7407    5.2326 H         1 UNK         0.2987 
    111 H111       27.6470   33.6010    5.3118 H         1 UNK         0.0949 
    112 H112       26.0537   31.7487    3.4661 H         1 UNK         0.0806 
    113 H113       25.4902   32.4454    4.9824 H         1 UNK         0.0806 
    114 H114       25.8136   33.4852    3.6037 H         1 UNK         0.0806 
    115 H115       28.7699   31.1741    2.9130 H         1 UNK         0.3010 
    116 H116       29.7880   33.2604    1.0902 H         1 UNK         0.0829 
    117 H117       28.8448   31.1038    0.1979 H         1 UNK         0.0813 
    118 H118       30.5279   31.3210   -0.2564 H         1 UNK         0.0813 
    119 H119       30.1076   30.2072    1.0371 H         1 UNK         0.0813 
    120 H120       31.9879   33.7126    0.8098 H         1 UNK         0.3038 
    121 H121       33.7210   33.5615    3.0379 H         1 UNK         0.0769 
    122 H122       33.8572   35.3516    1.3254 H         1 UNK         0.0811 
    123 H123       34.3497   34.1825    0.0988 H         1 UNK         0.0811 
    124 H124       35.4034   34.5332    1.4614 H         1 UNK         0.0811 
    125 H125       33.3238   31.3659    0.3366 H         1 UNK         0.3204 
    126 H126       35.7169   29.7684    0.9128 H         1 UNK         0.0748 
    127 H127       34.8741   30.0554   -1.4283 H         1 UNK         0.0771 
    128 H128       34.8510   28.3678   -0.9489 H         1 UNK         0.0771 
    129 H129       33.3509   29.2824   -0.9822 H         1 UNK         0.0771 
    130 H130       32.7218   30.0635    2.4666 H         1 UNK         0.2980 
    131 H131       31.4625   28.9031    3.7460 H         1 UNK         0.0545 
    132 H132       30.1091   25.6502    2.3744 H         1 UNK         0.3459 
    133 H133       30.9357   25.9293    3.8883 H         1 UNK         0.3459 
    134 H134       33.2834   26.4958    4.0932 H         1 UNK         0.0616 
    135 H135       33.8753   28.0327    4.6385 H         1 UNK         0.0616 
    136 H136       32.1241   25.6423    7.6033 H         1 UNK         0.0634 
    137 H137       33.4328   25.5037    6.4559 H         1 UNK         0.0634 
@<TRIPOS>BOND
     1    1    2 1    
     2    1   72 1    
     3    1   73 1    
     4    1   74 1    
     5    2    3 2    
     6    2    4 am   BACKBONE|DICT|INTERRES
     7    4    5 1    
     8    4   75 1    
     9    5    6 1    
    10    5   35 1    
    11    5   76 1    
    12    6    7 1    
    13    6   77 1    
    14    6   78 1    
    15    7    8 1    
    16    8    9 1    
    17    8   79 1    
    18    8   80 1    
    19    9   10 ar   
    20    9   14 ar   
    21   10   11 ar   
    22   10   81 1    
    23   11   12 ar   
    24   11   71 1    
    25   12   13 ar   
    26   12   82 1    
    27   13   14 ar   
    28   13   15 1    
    29   14   83 1    
    30   15   16 1    
    31   15   84 1    
    32   15   85 1    
    33   16   17 1    
    34   17   18 1    
    35   17   86 1    
    36   17   87 1    
    37   18   19 1    
    38   18   37 1    
    39   18   88 1    
    40   19   20 am   BACKBONE|DICT|INTERRES
    41   19   89 1    
    42   20   21 2    
    43   20   22 1    
    44   22   23 1    
    45   22   24 1    
    46   22   90 1    
    47   23   91 1    
    48   23   92 1    
    49   23   93 1    
    50   24   25 am   BACKBONE|DICT|INTERRES
    51   24   94 1    
    52   25   26 2    
    53   25   27 1    
    54   27   28 1    
    55   27   29 1    
    56   27   95 1    
    57   28   96 1    
    58   28   97 1    
    59   28   98 1    
    60   29   30 am   BACKBONE|DICT|INTERRES
    61   29   99 1    
    62   30   31 2    
    63   30   32 1    
    64   32   33 1    
    65   32   34 1    
    66   32  100 1    
    67   33  101 1    
    68   33  102 1    
    69   33  103 1    
    70   34   35 am   BACKBONE|DICT|INTERRES
    71   34  104 1    
    72   35   36 2    
    73   37   38 2    
    74   37   39 am   BACKBONE|DICT|INTERRES
    75   39   40 1    
    76   39  105 1    
    77   40   41 1    
    78   40   42 1    
    79   40  106 1    
    80   41  107 1    
    81   41  108 1    
    82   41  109 1    
    83   42   43 2    
    84   42   44 am   BACKBONE|DICT|INTERRES
    85   44   45 1    
    86   44  110 1    
    87   45   46 1    
    88   45   47 1    
    89   45  111 1    
    90   46  112 1    
    91   46  113 1    
    92   46  114 1    
    93   47   48 2    
    94   47   49 am   BACKBONE|DICT|INTERRES
    95   49   50 1    
    96   49  115 1    
    97   50   51 1    
    98   50   52 1    
    99   50  116 1    
   100   51  117 1    
   101   51  118 1    
   102   51  119 1    
   103   52   53 2    
   104   52   54 am   BACKBONE|DICT|INTERRES
   105   54   55 1    
   106   54  120 1    
   107   55   56 1    
   108   55   57 1    
   109   55  121 1    
   110   56  122 1    
   111   56  123 1    
   112   56  124 1    
   113   57   58 2    
   114   57   59 am   BACKBONE|DICT|INTERRES
   115   59   60 1    
   116   59  125 1    
   117   60   61 1    
   118   60   62 1    
   119   60  126 1    
   120   61  127 1    
   121   61  128 1    
   122   61  129 1    
   123   62   63 2    
   124   62   64 am   BACKBONE|DICT|INTERRES
   125   64   65 1    
   126   64  130 1    
   127   65   66 1    
   128   65   69 1    
   129   65  131 1    
   130   66   67 am   BACKBONE|DICT|INTERRES
   131   66   68 2    
   132   67  132 1    
   133   67  133 1    
   134   69   70 1    
   135   69  134 1    
   136   69  135 1    
   137   70   71 1    
   138   71  136 1    
   139   71  137 1    
@<TRIPOS>SUBSTRUCTURE
     1 UNK         1 GROUP             0       ****    0 ROOT    
