@<TRIPOS>MOLECULE
3R136
137   139    1
SMALL
USER_CHARGES


@<TRIPOS>ATOM
      1 CA         28.2056   16.7422    1.0868 C.3       0 UNK        -0.1979 
      2 C          28.5107   18.2175    0.8751 C.2       0 UNK         0.4864 
      3 O          29.4098   18.5535    0.1014 O.2       0 UNK        -0.5359 
      4 N          27.7707   19.1057    1.5526 N.am      1 UNK        -0.4318 
      5 CA         27.9025   20.5610    1.4513 C.3       1 UNK         0.0824 
      6 C6         27.3724   21.2628    2.7281 C.3       12 UNK        -0.0944 
      7 S7         27.8296   23.0279    2.7974 S.3       12 UNK        -0.2672 
      8 C8         29.3140   22.9721    3.8397 C.3       12 UNK         0.0333 
      9 C9         29.8839   24.3688    4.0093 C.ar      12 UNK        -0.0807 
     10 C10        30.8613   24.8429    3.1291 C.ar      12 UNK        -0.0894 
     11 C11        31.3688   26.1371    3.2701 C.ar      12 UNK        -0.0804 
     12 C12        30.9059   26.9490    4.3097 C.ar      12 UNK        -0.0824 
     13 C13        29.9026   26.4986    5.1716 C.ar      12 UNK        -0.0762 
     14 C14        29.4063   25.2000    5.0270 C.ar      12 UNK        -0.0782 
     15 C15        29.3110   27.4388    6.2131 C.3       12 UNK         0.0230 
     16 S16        28.4235   28.8387    5.4442 S.3       12 UNK        -0.2608 
     17 C17        27.1872   27.9929    4.3958 C.3       12 UNK        -0.0989 
     18 CA         27.6822   27.8358    2.9306 C.3       5 UNK         0.0716 
     19 N          27.0960   26.6828    2.2413 N.am      5 UNK        -0.4135 
     20 C          25.8179   26.5283    1.8631 C.2       4 UNK         0.5031 
     21 O          24.9085   27.2963    2.1814 O.2       4 UNK        -0.5229 
     22 CA         25.5070   25.3055    0.9700 C.3       4 UNK         0.0329 
     23 CB         24.2189   25.4861    0.1395 C.3       4 UNK        -0.2001 
     24 N          26.6243   24.9067    0.1005 N.am      4 UNK        -0.4303 
     25 C          27.2513   25.6582   -0.8205 C.2       3 UNK         0.5044 
     26 O          26.9445   26.8187   -1.0903 O.2       3 UNK        -0.5152 
     27 CA         28.4538   25.0224   -1.5414 C.3       3 UNK         0.0319 
     28 CB         29.7603   25.4095   -0.8272 C.3       3 UNK        -0.2001 
     29 N          28.3733   23.5626   -1.6336 N.am      3 UNK        -0.4354 
     30 C          27.5216   22.8899   -2.4228 C.2       2 UNK         0.4964 
     31 O          26.7449   23.4298   -3.2109 O.2       2 UNK        -0.5047 
     32 CA         27.5287   21.3534   -2.3061 C.3       2 UNK         0.0288 
     33 CB         28.4475   20.7350   -3.3722 C.3       2 UNK        -0.2113 
     34 N          27.9335   20.8706   -0.9813 N.am      2 UNK        -0.4145 
     35 C          27.2445   21.0717    0.1504 C.2       1 UNK         0.5006 
     36 O          26.1478   21.6334    0.1861 O.2       1 UNK        -0.5103 
     37 C          27.5602   29.1094    2.0666 C.2       5 UNK         0.5055 
     38 O          26.7462   29.9908    2.3502 O.2       5 UNK        -0.5220 
     39 N          28.3506   29.1416    0.9838 N.am      6 UNK        -0.4450 
     40 CA         28.3130   30.1629   -0.0657 C.3       6 UNK         0.0367 
     41 CB         29.2154   29.7233   -1.2308 C.3       6 UNK        -0.1929 
     42 C          28.6984   31.5777    0.3991 C.2       6 UNK         0.5070 
     43 O          28.2047   32.5475   -0.1779 O.2       6 UNK        -0.5237 
     44 N          29.5620   31.6821    1.4155 N.am      7 UNK        -0.4739 
     45 CA         30.0049   32.9405    2.0099 C.3       7 UNK         0.0276 
     46 CB         31.0441   33.6323    1.1022 C.3       7 UNK        -0.1927 
     47 C          30.5706   32.6811    3.4107 C.2       7 UNK         0.5013 
     48 O          30.8576   31.5316    3.7626 O.2       7 UNK        -0.5193 
     49 N          30.7367   33.7706    4.1706 N.am      8 UNK        -0.4253 
     50 CA         31.3447   33.7989    5.5019 C.3       8 UNK         0.0242 
     51 CB         31.1552   35.2058    6.0964 C.3       8 UNK        -0.2000 
     52 C          32.8360   33.4154    5.4848 C.2       8 UNK         0.4948 
     53 O          33.4650   33.4060    4.4231 O.2       8 UNK        -0.5275 
     54 N          33.3679   33.1075    6.6775 N.am      9 UNK        -0.4246 
     55 CA         34.7462   32.6627    6.9359 C.3       9 UNK         0.0261 
     56 CB         35.7526   33.8023    6.6631 C.3       9 UNK        -0.1959 
     57 C          35.0986   31.3569    6.1932 C.2       9 UNK         0.5033 
     58 O          36.2254   31.2032    5.7184 O.2       9 UNK        -0.5390 
     59 N          34.1098   30.4519    6.1136 N.am      10 UNK        -0.4215 
     60 CA         34.1149   29.1776    5.3907 C.3       10 UNK         0.0240 
     61 CB         35.1134   28.1824    6.0214 C.3       10 UNK        -0.1982 
     62 C          34.3271   29.3751    3.8779 C.2       10 UNK         0.4970 
     63 O          35.3312   28.9121    3.3328 O.2       10 UNK        -0.4916 
     64 N          33.3604   30.0419    3.2308 N.am      11 UNK        -0.4279 
     65 CA         33.3278   30.3049    1.7818 C.3       11 UNK         0.1003 
     66 C          34.4521   31.2709    1.3032 C.2       11 UNK         0.5709 
     67 N          34.7942   32.2951    2.0759 N.am      11 UNK        -0.7358 
     68 O          35.0096   31.1133    0.2192 O.2       11 UNK        -0.4999 
     69 C69        33.1963   29.0132    0.9182 C.3       12 UNK        -0.0954 
     70 S70        31.6966   28.0551    1.3195 S.3       12 UNK        -0.2268 
     71 C71        32.3938   26.6795    2.2885 C.3       12 UNK         0.0203 
     72 H72        29.0790   16.2339    1.4940 H         1 UNK         0.0888 
     73 H73        27.3741   16.5919    1.7748 H         1 UNK         0.0888 
     74 H74        27.9495   16.2728    0.1377 H         1 UNK         0.0888 
     75 H75        27.0280   18.7741    2.1522 H         1 UNK         0.3017 
     76 H76        28.9685   20.7918    1.3842 H         1 UNK         0.0873 
     77 H77        27.7660   20.7680    3.6176 H         1 UNK         0.0745 
     78 H78        26.2863   21.1788    2.8006 H         1 UNK         0.0745 
     79 H79        29.0647   22.5464    4.8130 H         1 UNK         0.0705 
     80 H80        30.0551   22.3103    3.3884 H         1 UNK         0.0705 
     81 H81        31.2135   24.2094    2.3263 H         1 UNK         0.1334 
     82 H82        31.2712   27.9619    4.4011 H         1 UNK         0.1417 
     83 H83        28.6255   24.8434    5.6852 H         1 UNK         0.1562 
     84 H84        30.1125   27.8289    6.8418 H         1 UNK         0.0748 
     85 H85        28.6291   26.9066    6.8782 H         1 UNK         0.0748 
     86 H86        26.2391   28.5316    4.4424 H         1 UNK         0.0940 
     87 H87        26.9840   27.0136    4.8315 H         1 UNK         0.0940 
     88 H88        28.7449   27.6083    2.9585 H         1 UNK         0.0703 
     89 H89        27.7504   25.9691    1.9551 H         1 UNK         0.3081 
     90 H90        25.3413   24.4700    1.6516 H         1 UNK         0.0719 
     91 H91        24.2866   26.3458   -0.5280 H         1 UNK         0.0809 
     92 H92        24.0135   24.6044   -0.4677 H         1 UNK         0.0809 
     93 H93        23.3536   25.6418    0.7849 H         1 UNK         0.0809 
     94 H94        26.9430   23.9554    0.2283 H         1 UNK         0.2990 
     95 H95        28.4837   25.4277   -2.5553 H         1 UNK         0.0690 
     96 H96        30.6321   25.0216   -1.3544 H         1 UNK         0.0788 
     97 H97        29.7921   25.0338    0.1963 H         1 UNK         0.0788 
     98 H98        29.8726   26.4934   -0.7795 H         1 UNK         0.0788 
     99 H99        28.9954   23.0325   -1.0415 H         1 UNK         0.2993 
    100 H100       26.5082   21.0095   -2.4894 H         1 UNK         0.0949 
    101 H101       28.1527   21.0526   -4.3736 H         1 UNK         0.0767 
    102 H102       29.4881   21.0295   -3.2291 H         1 UNK         0.0767 
    103 H103       28.4009   19.6459   -3.3523 H         1 UNK         0.0767 
    104 H104       28.7810   20.3158   -0.9256 H         1 UNK         0.3013 
    105 H105       28.9940   28.3782    0.8340 H         1 UNK         0.3121 
    106 H106       27.2854   30.2108   -0.4326 H         1 UNK         0.0774 
    107 H107       28.8986   28.7639   -1.6398 H         1 UNK         0.0815 
    108 H108       29.1784   30.4472   -2.0461 H         1 UNK         0.0815 
    109 H109       30.2580   29.6332   -0.9241 H         1 UNK         0.0815 
    110 H110       29.8903   30.8492    1.8890 H         1 UNK         0.2987 
    111 H111       29.1358   33.5927    2.1231 H         1 UNK         0.0949 
    112 H112       31.3919   34.5692    1.5390 H         1 UNK         0.0806 
    113 H113       31.9221   33.0101    0.9375 H         1 UNK         0.0806 
    114 H114       30.6238   33.8758    0.1265 H         1 UNK         0.0806 
    115 H115       30.5024   34.6688    3.7744 H         1 UNK         0.3010 
    116 H116       30.8143   33.0751    6.1247 H         1 UNK         0.0829 
    117 H117       30.1006   35.4787    6.1433 H         1 UNK         0.0813 
    118 H118       31.5444   35.2641    7.1136 H         1 UNK         0.0813 
    119 H119       31.6726   35.9647    5.5075 H         1 UNK         0.0813 
    120 H120       32.7697   33.1586    7.4915 H         1 UNK         0.3038 
    121 H121       34.7996   32.4272    8.0001 H         1 UNK         0.0769 
    122 H122       35.8057   34.0509    5.6027 H         1 UNK         0.0811 
    123 H123       36.7576   33.5206    6.9800 H         1 UNK         0.0811 
    124 H124       35.4844   34.7080    7.2072 H         1 UNK         0.0811 
    125 H125       33.2287   30.7027    6.5400 H         1 UNK         0.3204 
    126 H126       33.1191   28.7518    5.5156 H         1 UNK         0.0748 
    127 H127       35.0501   27.2087    5.5335 H         1 UNK         0.0771 
    128 H128       36.1452   28.5236    5.9301 H         1 UNK         0.0771 
    129 H129       34.9042   28.0284    7.0800 H         1 UNK         0.0771 
    130 H130       32.5785   30.4340    3.7449 H         1 UNK         0.2980 
    131 H131       32.4100   30.8653    1.6161 H         1 UNK         0.0545 
    132 H132       34.3146   32.4857    2.9517 H         1 UNK         0.3459 
    133 H133       35.5199   32.9192    1.7642 H         1 UNK         0.3459 
    134 H134       33.1249   29.2747   -0.1388 H         1 UNK         0.0616 
    135 H135       34.0821   28.3835    1.0104 H         1 UNK         0.0616 
    136 H136       32.7339   25.9025    1.6025 H         1 UNK         0.0634 
    137 H137       33.2716   27.0035    2.8445 H         1 UNK         0.0634 
@<TRIPOS>BOND
     1    1    2 1    
     2    1   72 1    
     3    1   73 1    
     4    1   74 1    
     5    2    3 2    
     6    2    4 am   BACKBONE|DICT|INTERRES
     7    4    5 1    
     8    4   75 1    
     9    5    6 1    
    10    5   35 1    
    11    5   76 1    
    12    6    7 1    
    13    6   77 1    
    14    6   78 1    
    15    7    8 1    
    16    8    9 1    
    17    8   79 1    
    18    8   80 1    
    19    9   10 ar   
    20    9   14 ar   
    21   10   11 ar   
    22   10   81 1    
    23   11   12 ar   
    24   11   71 1    
    25   12   13 ar   
    26   12   82 1    
    27   13   14 ar   
    28   13   15 1    
    29   14   83 1    
    30   15   16 1    
    31   15   84 1    
    32   15   85 1    
    33   16   17 1    
    34   17   18 1    
    35   17   86 1    
    36   17   87 1    
    37   18   19 1    
    38   18   37 1    
    39   18   88 1    
    40   19   20 am   BACKBONE|DICT|INTERRES
    41   19   89 1    
    42   20   21 2    
    43   20   22 1    
    44   22   23 1    
    45   22   24 1    
    46   22   90 1    
    47   23   91 1    
    48   23   92 1    
    49   23   93 1    
    50   24   25 am   BACKBONE|DICT|INTERRES
    51   24   94 1    
    52   25   26 2    
    53   25   27 1    
    54   27   28 1    
    55   27   29 1    
    56   27   95 1    
    57   28   96 1    
    58   28   97 1    
    59   28   98 1    
    60   29   30 am   BACKBONE|DICT|INTERRES
    61   29   99 1    
    62   30   31 2    
    63   30   32 1    
    64   32   33 1    
    65   32   34 1    
    66   32  100 1    
    67   33  101 1    
    68   33  102 1    
    69   33  103 1    
    70   34   35 am   BACKBONE|DICT|INTERRES
    71   34  104 1    
    72   35   36 2    
    73   37   38 2    
    74   37   39 am   BACKBONE|DICT|INTERRES
    75   39   40 1    
    76   39  105 1    
    77   40   41 1    
    78   40   42 1    
    79   40  106 1    
    80   41  107 1    
    81   41  108 1    
    82   41  109 1    
    83   42   43 2    
    84   42   44 am   BACKBONE|DICT|INTERRES
    85   44   45 1    
    86   44  110 1    
    87   45   46 1    
    88   45   47 1    
    89   45  111 1    
    90   46  112 1    
    91   46  113 1    
    92   46  114 1    
    93   47   48 2    
    94   47   49 am   BACKBONE|DICT|INTERRES
    95   49   50 1    
    96   49  115 1    
    97   50   51 1    
    98   50   52 1    
    99   50  116 1    
   100   51  117 1    
   101   51  118 1    
   102   51  119 1    
   103   52   53 2    
   104   52   54 am   BACKBONE|DICT|INTERRES
   105   54   55 1    
   106   54  120 1    
   107   55   56 1    
   108   55   57 1    
   109   55  121 1    
   110   56  122 1    
   111   56  123 1    
   112   56  124 1    
   113   57   58 2    
   114   57   59 am   BACKBONE|DICT|INTERRES
   115   59   60 1    
   116   59  125 1    
   117   60   61 1    
   118   60   62 1    
   119   60  126 1    
   120   61  127 1    
   121   61  128 1    
   122   61  129 1    
   123   62   63 2    
   124   62   64 am   BACKBONE|DICT|INTERRES
   125   64   65 1    
   126   64  130 1    
   127   65   66 1    
   128   65   69 1    
   129   65  131 1    
   130   66   67 am   BACKBONE|DICT|INTERRES
   131   66   68 2    
   132   67  132 1    
   133   67  133 1    
   134   69   70 1    
   135   69  134 1    
   136   69  135 1    
   137   70   71 1    
   138   71  136 1    
   139   71  137 1    
@<TRIPOS>SUBSTRUCTURE
     1 UNK         1 GROUP             0       ****    0 ROOT    
