@<TRIPOS>MOLECULE
3R136
137   139    1
SMALL
USER_CHARGES


@<TRIPOS>ATOM
      1 CA         28.8878   21.5853   -3.1668 C.3       0 UNK        -0.1979 
      2 C          29.8034   22.6531   -2.5883 C.2       0 UNK         0.4864 
      3 O          29.9328   23.7311   -3.1733 O.2       0 UNK        -0.5359 
      4 N          30.4417   22.3656   -1.4452 N.am      1 UNK        -0.4318 
      5 CA         31.2736   23.3051   -0.6876 C.3       1 UNK         0.0824 
      6 C6         32.1106   22.6184    0.4257 C.3       12 UNK        -0.0944 
      7 S7         31.2195   21.3644    1.4146 S.3       12 UNK        -0.2672 
      8 C8         31.6340   21.8532    3.1184 C.3       12 UNK         0.0333 
      9 C9         30.7258   22.9609    3.6305 C.ar      12 UNK        -0.0807 
     10 C10        31.1838   24.2787    3.7174 C.ar      12 UNK        -0.0894 
     11 C11        30.3511   25.2866    4.2151 C.ar      12 UNK        -0.0804 
     12 C12        29.0548   24.9683    4.6329 C.ar      12 UNK        -0.0824 
     13 C13        28.5853   23.6532    4.5460 C.ar      12 UNK        -0.0762 
     14 C14        29.4258   22.6562    4.0429 C.ar      12 UNK        -0.0782 
     15 C15        27.1825   23.2918    5.0124 C.3       12 UNK         0.0230 
     16 S16        25.9485   23.5094    3.6900 S.3       12 UNK        -0.2608 
     17 C17        25.5968   25.2951    3.8095 C.3       12 UNK        -0.0989 
     18 CA         26.1679   26.1098    2.6152 C.3       5 UNK         0.0716 
     19 N          25.6034   25.7088    1.3193 N.am      5 UNK        -0.4135 
     20 C          24.3355   25.8620    0.9098 C.2       4 UNK         0.5031 
     21 O          23.4548   26.3906    1.5912 O.2       4 UNK        -0.5229 
     22 CA         23.9938   25.3431   -0.5029 C.3       4 UNK         0.0329 
     23 CB         22.5979   25.7897   -0.9785 C.3       4 UNK        -0.2001 
     24 N          24.9857   25.7746   -1.4895 N.am      4 UNK        -0.4303 
     25 C          26.1039   25.1102   -1.8043 C.2       3 UNK         0.5044 
     26 O          26.4032   24.0182   -1.3205 O.2       3 UNK        -0.5152 
     27 CA         27.0754   25.7819   -2.7940 C.3       3 UNK         0.0319 
     28 CB         26.5121   27.0419   -3.4924 C.3       3 UNK        -0.2001 
     29 N          28.3593   26.0760   -2.1496 N.am      3 UNK        -0.4354 
     30 C          28.5574   26.8464   -1.0664 C.2       2 UNK         0.4964 
     31 O          27.6553   27.4572   -0.4921 O.2       2 UNK        -0.5047 
     32 CA         30.0013   26.9430   -0.5292 C.3       2 UNK         0.0288 
     33 CB         30.0672   27.4565    0.9233 C.3       2 UNK        -0.2113 
     34 N          30.7543   25.6913   -0.6747 N.am      2 UNK        -0.4145 
     35 C          30.4232   24.4878   -0.1793 C.2       1 UNK         0.5006 
     36 O          29.4694   24.2827    0.5731 O.2       1 UNK        -0.5103 
     37 C          26.0619   27.6347    2.8494 C.2       5 UNK         0.5055 
     38 O          25.5755   28.0675    3.8977 O.2       5 UNK        -0.5220 
     39 N          26.5069   28.4296    1.8671 N.am      6 UNK        -0.4450 
     40 CA         26.5920   29.8884    1.9600 C.3       6 UNK         0.0367 
     41 CB         26.9017   30.4617    0.5672 C.3       6 UNK        -0.1929 
     42 C          27.6625   30.3370    2.9703 C.2       6 UNK         0.5070 
     43 O          28.6188   29.6026    3.2315 O.2       6 UNK        -0.5237 
     44 N          27.5170   31.5639    3.4853 N.am      7 UNK        -0.4739 
     45 CA         28.4484   32.2048    4.4211 C.3       7 UNK         0.0276 
     46 CB         27.7036   33.3206    5.1783 C.3       7 UNK        -0.1927 
     47 C          29.7260   32.7124    3.7190 C.2       7 UNK         0.5013 
     48 O          30.0301   33.9063    3.7678 O.2       7 UNK        -0.5193 
     49 N          30.4354   31.7954    3.0520 N.am      8 UNK        -0.4253 
     50 CA         31.7031   32.0343    2.3662 C.3       8 UNK         0.0242 
     51 CB         32.0131   30.8248    1.4676 C.3       8 UNK        -0.2000 
     52 C          32.8437   32.2577    3.3699 C.2       8 UNK         0.4948 
     53 O          32.8660   31.6140    4.4208 O.2       8 UNK        -0.5275 
     54 N          33.8114   33.1080    3.0011 N.am      9 UNK        -0.4246 
     55 CA         34.9991   33.4228    3.8085 C.3       9 UNK         0.0261 
     56 CB         35.7832   34.5608    3.1345 C.3       9 UNK        -0.1959 
     57 C          35.9215   32.2160    4.0725 C.2       9 UNK         0.5033 
     58 O          36.6555   32.2211    5.0613 O.2       9 UNK        -0.5390 
     59 N          35.8583   31.2054    3.1955 N.am      10 UNK        -0.4215 
     60 CA         36.5638   29.9310    3.3257 C.3       10 UNK         0.0240 
     61 CB         36.6617   29.2779    1.9362 C.3       10 UNK        -0.1982 
     62 C          35.9120   28.9590    4.3293 C.2       10 UNK         0.4970 
     63 O          36.5626   27.9798    4.6980 O.2       10 UNK        -0.4916 
     64 N          34.6550   29.2035    4.7317 N.am      11 UNK        -0.4279 
     65 CA         33.9187   28.3615    5.6853 C.3       11 UNK         0.1003 
     66 C          34.4740   28.4664    7.1341 C.2       11 UNK         0.5709 
     67 N          34.3643   27.4038    7.9197 N.am      11 UNK        -0.7358 
     68 O          34.9726   29.5062    7.5617 O.2       11 UNK        -0.4999 
     69 C69        32.3916   28.6416    5.6249 C.3       12 UNK        -0.0954 
     70 S70        31.4131   27.1410    5.9678 S.3       12 UNK        -0.2268 
     71 C71        30.8526   26.7195    4.2917 C.3       12 UNK         0.0203 
     72 H72        29.1838   21.3487   -4.1884 H         1 UNK         0.0888 
     73 H73        28.9153   20.6655   -2.5829 H         1 UNK         0.0888 
     74 H74        27.8597   21.9470   -3.1826 H         1 UNK         0.0888 
     75 H75        30.2753   21.4823   -0.9837 H         1 UNK         0.3017 
     76 H76        31.9961   23.7094   -1.4004 H         1 UNK         0.0873 
     77 H77        32.5591   23.3663    1.0821 H         1 UNK         0.0745 
     78 H78        32.9543   22.1042   -0.0373 H         1 UNK         0.0745 
     79 H79        32.6835   22.1457    3.1778 H         1 UNK         0.0705 
     80 H80        31.5296   20.9802    3.7645 H         1 UNK         0.0705 
     81 H81        32.1886   24.5205    3.3997 H         1 UNK         0.1334 
     82 H82        28.4155   25.7464    5.0261 H         1 UNK         0.1417 
     83 H83        29.0692   21.6375    3.9721 H         1 UNK         0.1562 
     84 H84        26.9084   23.8763    5.8919 H         1 UNK         0.0748 
     85 H85        27.1595   22.2494    5.3340 H         1 UNK         0.0748 
     86 H86        25.9943   25.6684    4.7544 H         1 UNK         0.0940 
     87 H87        24.5157   25.4260    3.8801 H         1 UNK         0.0940 
     88 H88        27.2364   25.8978    2.5499 H         1 UNK         0.0703 
     89 H89        26.2517   25.2656    0.6810 H         1 UNK         0.3081 
     90 H90        23.9876   24.2524   -0.4461 H         1 UNK         0.0719 
     91 H91        21.8203   25.4326   -0.3019 H         1 UNK         0.0809 
     92 H92        22.5158   26.8763   -1.0264 H         1 UNK         0.0809 
     93 H93        22.3695   25.3915   -1.9673 H         1 UNK         0.0809 
     94 H94        24.8505   26.6909   -1.8922 H         1 UNK         0.2990 
     95 H95        27.2817   25.0401   -3.5670 H         1 UNK         0.0690 
     96 H96        26.3062   27.8522   -2.7921 H         1 UNK         0.0788 
     97 H97        25.5874   26.8174   -4.0259 H         1 UNK         0.0788 
     98 H98        27.2179   27.4227   -4.2307 H         1 UNK         0.0788 
     99 H99        29.1410   25.5327   -2.5023 H         1 UNK         0.2993 
    100 H100       30.5030   27.6791   -1.1591 H         1 UNK         0.0949 
    101 H101       29.6350   28.4537    1.0054 H         1 UNK         0.0767 
    102 H102       29.5179   26.8070    1.6054 H         1 UNK         0.0767 
    103 H103       31.0966   27.5230    1.2734 H         1 UNK         0.0767 
    104 H104       31.5425   25.7389   -1.3061 H         1 UNK         0.3013 
    105 H105       26.9107   28.0079    1.0305 H         1 UNK         0.3121 
    106 H106       25.6210   30.2646    2.2889 H         1 UNK         0.0774 
    107 H107       26.9031   31.5522    0.5808 H         1 UNK         0.0815 
    108 H108       27.8801   30.1399    0.2082 H         1 UNK         0.0815 
    109 H109       26.1584   30.1476   -0.1659 H         1 UNK         0.0815 
    110 H110       26.7290   32.1222    3.1886 H         1 UNK         0.2987 
    111 H111       28.7672   31.4628    5.1572 H         1 UNK         0.0949 
    112 H112       26.8415   32.9276    5.7175 H         1 UNK         0.0806 
    113 H113       28.3541   33.7943    5.9149 H         1 UNK         0.0806 
    114 H114       27.3513   34.1020    4.5037 H         1 UNK         0.0806 
    115 H115       30.0889   30.8402    3.0738 H         1 UNK         0.3010 
    116 H116       31.5939   32.9239    1.7421 H         1 UNK         0.0829 
    117 H117       31.2170   30.6561    0.7420 H         1 UNK         0.0813 
    118 H118       32.9347   30.9772    0.9046 H         1 UNK         0.0813 
    119 H119       32.1322   29.9095    2.0497 H         1 UNK         0.0813 
    120 H120       33.7263   33.5900    2.1170 H         1 UNK         0.3038 
    121 H121       34.6500   33.7774    4.7807 H         1 UNK         0.0769 
    122 H122       35.1718   35.4573    3.0290 H         1 UNK         0.0811 
    123 H123       36.6572   34.8364    3.7266 H         1 UNK         0.0811 
    124 H124       36.1386   34.2759    2.1434 H         1 UNK         0.0811 
    125 H125       35.2393   31.3039    2.4047 H         1 UNK         0.3204 
    126 H126       37.5775   30.1309    3.6801 H         1 UNK         0.0748 
    127 H127       37.2188   28.3409    1.9824 H         1 UNK         0.0771 
    128 H128       35.6770   29.0508    1.5254 H         1 UNK         0.0771 
    129 H129       37.1811   29.9248    1.2288 H         1 UNK         0.0771 
    130 H130       34.1945   30.0650    4.4604 H         1 UNK         0.2980 
    131 H131       34.0839   27.3345    5.3519 H         1 UNK         0.0545 
    132 H132       33.9238   26.5598    7.5880 H         1 UNK         0.3459 
    133 H133       34.7067   27.4543    8.8663 H         1 UNK         0.3459 
    134 H134       32.0994   29.4303    6.3209 H         1 UNK         0.0616 
    135 H135       32.1067   29.0107    4.6382 H         1 UNK         0.0616 
    136 H136       31.6745   26.8632    3.5887 H         1 UNK         0.0634 
    137 H137       30.0628   27.4103    3.9934 H         1 UNK         0.0634 
@<TRIPOS>BOND
     1    1    2 1    
     2    1   72 1    
     3    1   73 1    
     4    1   74 1    
     5    2    3 2    
     6    2    4 am   BACKBONE|DICT|INTERRES
     7    4    5 1    
     8    4   75 1    
     9    5    6 1    
    10    5   35 1    
    11    5   76 1    
    12    6    7 1    
    13    6   77 1    
    14    6   78 1    
    15    7    8 1    
    16    8    9 1    
    17    8   79 1    
    18    8   80 1    
    19    9   10 ar   
    20    9   14 ar   
    21   10   11 ar   
    22   10   81 1    
    23   11   12 ar   
    24   11   71 1    
    25   12   13 ar   
    26   12   82 1    
    27   13   14 ar   
    28   13   15 1    
    29   14   83 1    
    30   15   16 1    
    31   15   84 1    
    32   15   85 1    
    33   16   17 1    
    34   17   18 1    
    35   17   86 1    
    36   17   87 1    
    37   18   19 1    
    38   18   37 1    
    39   18   88 1    
    40   19   20 am   BACKBONE|DICT|INTERRES
    41   19   89 1    
    42   20   21 2    
    43   20   22 1    
    44   22   23 1    
    45   22   24 1    
    46   22   90 1    
    47   23   91 1    
    48   23   92 1    
    49   23   93 1    
    50   24   25 am   BACKBONE|DICT|INTERRES
    51   24   94 1    
    52   25   26 2    
    53   25   27 1    
    54   27   28 1    
    55   27   29 1    
    56   27   95 1    
    57   28   96 1    
    58   28   97 1    
    59   28   98 1    
    60   29   30 am   BACKBONE|DICT|INTERRES
    61   29   99 1    
    62   30   31 2    
    63   30   32 1    
    64   32   33 1    
    65   32   34 1    
    66   32  100 1    
    67   33  101 1    
    68   33  102 1    
    69   33  103 1    
    70   34   35 am   BACKBONE|DICT|INTERRES
    71   34  104 1    
    72   35   36 2    
    73   37   38 2    
    74   37   39 am   BACKBONE|DICT|INTERRES
    75   39   40 1    
    76   39  105 1    
    77   40   41 1    
    78   40   42 1    
    79   40  106 1    
    80   41  107 1    
    81   41  108 1    
    82   41  109 1    
    83   42   43 2    
    84   42   44 am   BACKBONE|DICT|INTERRES
    85   44   45 1    
    86   44  110 1    
    87   45   46 1    
    88   45   47 1    
    89   45  111 1    
    90   46  112 1    
    91   46  113 1    
    92   46  114 1    
    93   47   48 2    
    94   47   49 am   BACKBONE|DICT|INTERRES
    95   49   50 1    
    96   49  115 1    
    97   50   51 1    
    98   50   52 1    
    99   50  116 1    
   100   51  117 1    
   101   51  118 1    
   102   51  119 1    
   103   52   53 2    
   104   52   54 am   BACKBONE|DICT|INTERRES
   105   54   55 1    
   106   54  120 1    
   107   55   56 1    
   108   55   57 1    
   109   55  121 1    
   110   56  122 1    
   111   56  123 1    
   112   56  124 1    
   113   57   58 2    
   114   57   59 am   BACKBONE|DICT|INTERRES
   115   59   60 1    
   116   59  125 1    
   117   60   61 1    
   118   60   62 1    
   119   60  126 1    
   120   61  127 1    
   121   61  128 1    
   122   61  129 1    
   123   62   63 2    
   124   62   64 am   BACKBONE|DICT|INTERRES
   125   64   65 1    
   126   64  130 1    
   127   65   66 1    
   128   65   69 1    
   129   65  131 1    
   130   66   67 am   BACKBONE|DICT|INTERRES
   131   66   68 2    
   132   67  132 1    
   133   67  133 1    
   134   69   70 1    
   135   69  134 1    
   136   69  135 1    
   137   70   71 1    
   138   71  136 1    
   139   71  137 1    
@<TRIPOS>SUBSTRUCTURE
     1 UNK         1 GROUP             0       ****    0 ROOT    
