@<TRIPOS>MOLECULE
3R136
137   139    1
SMALL
USER_CHARGES


@<TRIPOS>ATOM
      1 CA         27.5871   21.2167    4.7134 C.3       0 UNK        -0.1979 
      2 C          27.8217   20.5835    3.3497 C.2       0 UNK         0.4864 
      3 O          28.3497   19.4733    3.2716 O.2       0 UNK        -0.5359 
      4 N          27.4373   21.2828    2.2787 N.am      1 UNK        -0.4318 
      5 CA         27.5862   20.8722    0.8837 C.3       1 UNK         0.0824 
      6 C6         29.0560   20.9437    0.3781 C.3       12 UNK        -0.0944 
      7 S7         29.8062   22.6039    0.5201 S.3       12 UNK        -0.2672 
      8 C8         31.0026   22.3319    1.8616 C.3       12 UNK         0.0333 
      9 C9         31.4376   23.6565    2.4631 C.ar      12 UNK        -0.0807 
     10 C10        32.4796   24.3883    1.8875 C.ar      12 UNK        -0.0894 
     11 C11        32.8641   25.6256    2.4148 C.ar      12 UNK        -0.0804 
     12 C12        32.1826   26.1263    3.5332 C.ar      12 UNK        -0.0824 
     13 C13        31.1488   25.3952    4.1266 C.ar      12 UNK        -0.0762 
     14 C14        30.7828   24.1596    3.5888 C.ar      12 UNK        -0.0782 
     15 C15        30.4159   25.9366    5.3446 C.3       12 UNK         0.0230 
     16 S16        28.7180   26.4469    4.9374 S.3       12 UNK        -0.2608 
     17 C17        29.0044   27.9855    3.9950 C.3       12 UNK        -0.0989 
     18 CA         29.1109   27.7732    2.4567 C.3       5 UNK         0.0716 
     19 N          28.0419   26.9467    1.8825 N.am      5 UNK        -0.4135 
     20 C          26.7274   27.2080    1.8811 C.2       4 UNK         0.5031 
     21 O          26.2187   28.1857    2.4315 O.2       4 UNK        -0.5229 
     22 CA         25.8385   26.2089    1.1093 C.3       4 UNK         0.0329 
     23 CB         24.4935   26.8282    0.6747 C.3       4 UNK        -0.2001 
     24 N          26.5014   25.5814   -0.0449 N.am      4 UNK        -0.4303 
     25 C          27.0692   26.2030   -1.0940 C.2       3 UNK         0.5044 
     26 O          27.1709   27.4267   -1.1865 O.2       3 UNK        -0.5152 
     27 CA         27.6618   25.3306   -2.2181 C.3       3 UNK         0.0319 
     28 CB         29.1984   25.3753   -2.1724 C.3       3 UNK        -0.2001 
     29 N          27.2165   23.9351   -2.1767 N.am      3 UNK        -0.4354 
     30 C          25.9818   23.5191   -2.4978 C.2       2 UNK         0.4964 
     31 O          25.1129   24.2597   -2.9590 O.2       2 UNK        -0.5047 
     32 CA         25.6405   22.0366   -2.2445 C.3       2 UNK         0.0288 
     33 CB         25.6822   21.2454   -3.5624 C.3       2 UNK        -0.2113 
     34 N          26.4920   21.3625   -1.2549 N.am      2 UNK        -0.4145 
     35 C          26.6254   21.7205    0.0308 C.2       1 UNK         0.5006 
     36 O          26.0563   22.6968    0.5319 O.2       1 UNK        -0.5103 
     37 C          29.3261   29.1075    1.7027 C.2       5 UNK         0.5055 
     38 O          29.9438   30.0172    2.2619 O.2       5 UNK        -0.5220 
     39 N          28.8398   29.2077    0.4530 N.am      6 UNK        -0.4450 
     40 CA         28.8931   30.3834   -0.4228 C.3       6 UNK         0.0367 
     41 CB         30.3409   30.6271   -0.9070 C.3       6 UNK        -0.1929 
     42 C          28.2263   31.6099    0.2342 C.2       6 UNK         0.5070 
     43 O          27.1610   31.4696    0.8374 O.2       6 UNK        -0.5237 
     44 N          28.8613   32.7848    0.1490 N.am      7 UNK        -0.4739 
     45 CA         28.4366   34.0206    0.8141 C.3       7 UNK         0.0276 
     46 CB         28.8970   35.2218   -0.0339 C.3       7 UNK        -0.1927 
     47 C          28.9519   34.0839    2.2681 C.2       7 UNK         0.5013 
     48 O          29.5327   35.0959    2.6642 O.2       7 UNK        -0.5193 
     49 N          28.7488   32.9911    3.0219 N.am      8 UNK        -0.4253 
     50 CA         29.2311   32.7350    4.3862 C.3       8 UNK         0.0242 
     51 CB         28.5170   33.6516    5.4024 C.3       8 UNK        -0.2000 
     52 C          30.7682   32.8123    4.4736 C.2       8 UNK         0.4948 
     53 O          31.3117   33.6173    5.2342 O.2       8 UNK        -0.5275 
     54 N          31.4352   31.9966    3.6477 N.am      9 UNK        -0.4246 
     55 CA         32.8909   31.9341    3.5174 C.3       9 UNK         0.0261 
     56 CB         33.2343   31.0988    2.2743 C.3       9 UNK        -0.1959 
     57 C          33.5840   31.3668    4.7693 C.2       9 UNK         0.5033 
     58 O          32.9861   30.5845    5.5137 O.2       9 UNK        -0.5390 
     59 N          34.8593   31.7432    4.9472 N.am      10 UNK        -0.4215 
     60 CA         35.7185   31.3888    6.0871 C.3       10 UNK         0.0240 
     61 CB         37.0599   32.1287    5.9526 C.3       10 UNK        -0.1982 
     62 C          35.9572   29.8796    6.2893 C.2       10 UNK         0.4970 
     63 O          36.3062   29.4719    7.3979 O.2       10 UNK        -0.4916 
     64 N          35.7493   29.0830    5.2348 N.am      11 UNK        -0.4279 
     65 CA         35.6777   27.6154    5.2741 C.3       11 UNK         0.1003 
     66 C          34.4815   27.0407    6.0911 C.2       11 UNK         0.5709 
     67 N          33.4631   27.8235    6.4328 N.am      11 UNK        -0.7358 
     68 O          34.4940   25.8645    6.4449 O.2       11 UNK        -0.4999 
     69 C69        35.7744   27.0011    3.8485 C.3       12 UNK        -0.0954 
     70 S70        34.6906   27.8086    2.6168 S.3       12 UNK        -0.2268 
     71 C71        33.9857   26.3907    1.7095 C.3       12 UNK         0.0203 
     72 H72        27.1489   22.2114    4.6307 H         1 UNK         0.0888 
     73 H73        26.9139   20.5966    5.3047 H         1 UNK         0.0888 
     74 H74        28.5301   21.3069    5.2519 H         1 UNK         0.0888 
     75 H75        26.9611   22.1714    2.3786 H         1 UNK         0.3017 
     76 H76        27.2414   19.8389    0.8045 H         1 UNK         0.0873 
     77 H77        29.6659   20.2228    0.9244 H         1 UNK         0.0745 
     78 H78        29.1222   20.6302   -0.6649 H         1 UNK         0.0745 
     79 H79        31.8651   21.7869    1.4752 H         1 UNK         0.0705 
     80 H80        30.5584   21.7021    2.6337 H         1 UNK         0.0705 
     81 H81        32.9811   23.9988    1.0117 H         1 UNK         0.1334 
     82 H82        32.4380   27.0924    3.9425 H         1 UNK         0.1417 
     83 H83        29.9724   23.6006    4.0367 H         1 UNK         0.1562 
     84 H84        30.9507   26.7769    5.7871 H         1 UNK         0.0748 
     85 H85        30.3772   25.1619    6.1117 H         1 UNK         0.0748 
     86 H86        29.9064   28.4674    4.3776 H         1 UNK         0.0940 
     87 H87        28.1857   28.6700    4.2237 H         1 UNK         0.0940 
     88 H88        30.0230   27.2095    2.2675 H         1 UNK         0.0703 
     89 H89        28.3499   26.1060    1.4161 H         1 UNK         0.3081 
     90 H90        25.6194   25.4001    1.8081 H         1 UNK         0.0719 
     91 H91        24.6393   27.6832    0.0136 H         1 UNK         0.0809 
     92 H92        23.8735   26.1007    0.1507 H         1 UNK         0.0809 
     93 H93        23.9233   27.1762    1.5370 H         1 UNK         0.0809 
     94 H94        26.4760   24.5658   -0.0460 H         1 UNK         0.2990 
     95 H95        27.3384   25.7628   -3.1675 H         1 UNK         0.0690 
     96 H96        29.6385   24.7906   -2.9804 H         1 UNK         0.0788 
     97 H97        29.5882   24.9932   -1.2289 H         1 UNK         0.0788 
     98 H98        29.5617   26.3984   -2.2808 H         1 UNK         0.0788 
     99 H99        27.8729   23.2596   -1.8122 H         1 UNK         0.2993 
    100 H100       24.6176   22.0111   -1.8624 H         1 UNK         0.0949 
    101 H101       26.6895   21.2093   -3.9796 H         1 UNK         0.0767 
    102 H102       25.3381   20.2203   -3.4224 H         1 UNK         0.0767 
    103 H103       25.0347   21.7010   -4.3133 H         1 UNK         0.0767 
    104 H104       26.9998   20.5544   -1.5856 H         1 UNK         0.3013 
    105 H105       28.2883   28.4382    0.0840 H         1 UNK         0.3121 
    106 H106       28.2858   30.1399   -1.2959 H         1 UNK         0.0774 
    107 H107       30.3798   31.3999   -1.6756 H         1 UNK         0.0815 
    108 H108       30.9995   30.9294   -0.0925 H         1 UNK         0.0815 
    109 H109       30.7609   29.7235   -1.3489 H         1 UNK         0.0815 
    110 H110       29.7508   32.8145   -0.3285 H         1 UNK         0.2987 
    111 H111       27.3456   34.0505    0.8623 H         1 UNK         0.0949 
    112 H112       28.4977   35.1687   -1.0469 H         1 UNK         0.0806 
    113 H113       28.5509   36.1618    0.3981 H         1 UNK         0.0806 
    114 H114       29.9842   35.2748   -0.1033 H         1 UNK         0.0806 
    115 H115       28.2771   32.2142    2.5724 H         1 UNK         0.3010 
    116 H116       28.9602   31.7045    4.6226 H         1 UNK         0.0829 
    117 H117       27.4343   33.5405    5.3440 H         1 UNK         0.0813 
    118 H118       28.8138   33.4056    6.4227 H         1 UNK         0.0813 
    119 H119       28.7555   34.7033    5.2404 H         1 UNK         0.0813 
    120 H120       30.9016   31.3275    3.0936 H         1 UNK         0.3038 
    121 H121       33.2524   32.9528    3.3615 H         1 UNK         0.0769 
    122 H122       34.3121   30.9865    2.1509 H         1 UNK         0.0811 
    123 H123       32.8552   31.5698    1.3678 H         1 UNK         0.0811 
    124 H124       32.8029   30.0988    2.3342 H         1 UNK         0.0811 
    125 H125       35.2673   32.3701    4.2680 H         1 UNK         0.3204 
    126 H126       35.2189   31.7504    6.9883 H         1 UNK         0.0748 
    127 H127       37.7122   31.9148    6.8007 H         1 UNK         0.0771 
    128 H128       37.5945   31.8337    5.0486 H         1 UNK         0.0771 
    129 H129       36.9177   33.2093    5.9232 H         1 UNK         0.0771 
    130 H130       35.4574   29.5022    4.3650 H         1 UNK         0.2980 
    131 H131       36.5658   27.2827    5.8146 H         1 UNK         0.0545 
    132 H132       32.7233   27.4417    6.9973 H         1 UNK         0.3459 
    133 H133       33.4196   28.7935    6.1334 H         1 UNK         0.3459 
    134 H134       35.5787   25.9272    3.8698 H         1 UNK         0.0616 
    135 H135       36.7981   27.1024    3.4856 H         1 UNK         0.0616 
    136 H136       33.5921   26.7652    0.7637 H         1 UNK         0.0634 
    137 H137       34.7961   25.7057    1.4553 H         1 UNK         0.0634 
@<TRIPOS>BOND
     1    1    2 1    
     2    1   72 1    
     3    1   73 1    
     4    1   74 1    
     5    2    3 2    
     6    2    4 am   BACKBONE|DICT|INTERRES
     7    4    5 1    
     8    4   75 1    
     9    5    6 1    
    10    5   35 1    
    11    5   76 1    
    12    6    7 1    
    13    6   77 1    
    14    6   78 1    
    15    7    8 1    
    16    8    9 1    
    17    8   79 1    
    18    8   80 1    
    19    9   10 ar   
    20    9   14 ar   
    21   10   11 ar   
    22   10   81 1    
    23   11   12 ar   
    24   11   71 1    
    25   12   13 ar   
    26   12   82 1    
    27   13   14 ar   
    28   13   15 1    
    29   14   83 1    
    30   15   16 1    
    31   15   84 1    
    32   15   85 1    
    33   16   17 1    
    34   17   18 1    
    35   17   86 1    
    36   17   87 1    
    37   18   19 1    
    38   18   37 1    
    39   18   88 1    
    40   19   20 am   BACKBONE|DICT|INTERRES
    41   19   89 1    
    42   20   21 2    
    43   20   22 1    
    44   22   23 1    
    45   22   24 1    
    46   22   90 1    
    47   23   91 1    
    48   23   92 1    
    49   23   93 1    
    50   24   25 am   BACKBONE|DICT|INTERRES
    51   24   94 1    
    52   25   26 2    
    53   25   27 1    
    54   27   28 1    
    55   27   29 1    
    56   27   95 1    
    57   28   96 1    
    58   28   97 1    
    59   28   98 1    
    60   29   30 am   BACKBONE|DICT|INTERRES
    61   29   99 1    
    62   30   31 2    
    63   30   32 1    
    64   32   33 1    
    65   32   34 1    
    66   32  100 1    
    67   33  101 1    
    68   33  102 1    
    69   33  103 1    
    70   34   35 am   BACKBONE|DICT|INTERRES
    71   34  104 1    
    72   35   36 2    
    73   37   38 2    
    74   37   39 am   BACKBONE|DICT|INTERRES
    75   39   40 1    
    76   39  105 1    
    77   40   41 1    
    78   40   42 1    
    79   40  106 1    
    80   41  107 1    
    81   41  108 1    
    82   41  109 1    
    83   42   43 2    
    84   42   44 am   BACKBONE|DICT|INTERRES
    85   44   45 1    
    86   44  110 1    
    87   45   46 1    
    88   45   47 1    
    89   45  111 1    
    90   46  112 1    
    91   46  113 1    
    92   46  114 1    
    93   47   48 2    
    94   47   49 am   BACKBONE|DICT|INTERRES
    95   49   50 1    
    96   49  115 1    
    97   50   51 1    
    98   50   52 1    
    99   50  116 1    
   100   51  117 1    
   101   51  118 1    
   102   51  119 1    
   103   52   53 2    
   104   52   54 am   BACKBONE|DICT|INTERRES
   105   54   55 1    
   106   54  120 1    
   107   55   56 1    
   108   55   57 1    
   109   55  121 1    
   110   56  122 1    
   111   56  123 1    
   112   56  124 1    
   113   57   58 2    
   114   57   59 am   BACKBONE|DICT|INTERRES
   115   59   60 1    
   116   59  125 1    
   117   60   61 1    
   118   60   62 1    
   119   60  126 1    
   120   61  127 1    
   121   61  128 1    
   122   61  129 1    
   123   62   63 2    
   124   62   64 am   BACKBONE|DICT|INTERRES
   125   64   65 1    
   126   64  130 1    
   127   65   66 1    
   128   65   69 1    
   129   65  131 1    
   130   66   67 am   BACKBONE|DICT|INTERRES
   131   66   68 2    
   132   67  132 1    
   133   67  133 1    
   134   69   70 1    
   135   69  134 1    
   136   69  135 1    
   137   70   71 1    
   138   71  136 1    
   139   71  137 1    
@<TRIPOS>SUBSTRUCTURE
     1 UNK         1 GROUP             0       ****    0 ROOT    
