@<TRIPOS>MOLECULE
3R136
137   139    1
SMALL
USER_CHARGES


@<TRIPOS>ATOM
      1 CA         30.1021   20.3081   -4.2189 C.3       0 UNK        -0.1979 
      2 C          29.9265   21.6511   -3.5268 C.2       0 UNK         0.4864 
      3 O          29.4905   22.6153   -4.1576 O.2       0 UNK        -0.5359 
      4 N          30.2435   21.7232   -2.2280 N.am      1 UNK        -0.4318 
      5 CA         30.1745   22.9142   -1.3692 C.3       1 UNK         0.0824 
      6 C6         31.1601   22.8035   -0.1720 C.3       12 UNK        -0.0944 
      7 S7         31.1181   21.2186    0.7438 S.3       12 UNK        -0.2672 
      8 C8         30.1519   21.6208    2.2463 C.3       12 UNK         0.0333 
      9 C9         30.7230   22.7020    3.1698 C.ar      12 UNK        -0.0807 
     10 C10        32.0420   23.1647    3.0815 C.ar      12 UNK        -0.0894 
     11 C11        32.5150   24.1471    3.9553 C.ar      12 UNK        -0.0804 
     12 C12        31.6658   24.6670    4.9367 C.ar      12 UNK        -0.0824 
     13 C13        30.3507   24.2074    5.0534 C.ar      12 UNK        -0.0762 
     14 C14        29.8925   23.2247    4.1667 C.ar      12 UNK        -0.0782 
     15 C15        29.4584   24.7263    6.1795 C.3       12 UNK         0.0230 
     16 S16        27.7631   25.1077    5.6260 S.3       12 UNK        -0.2608 
     17 C17        27.6182   26.8997    5.9532 C.3       12 UNK        -0.0989 
     18 CA         28.4967   27.8197    5.0596 C.3       5 UNK         0.0716 
     19 N          28.6180   27.3113    3.6919 N.am      5 UNK        -0.4135 
     20 C          29.2724   27.8803    2.6730 C.2       4 UNK         0.5031 
     21 O          29.9072   28.9321    2.7565 O.2       4 UNK        -0.5229 
     22 CA         29.1218   27.2037    1.3021 C.3       4 UNK         0.0329 
     23 CB         30.3063   26.2608    1.0625 C.3       4 UNK        -0.2001 
     24 N          27.8524   26.4811    1.1083 N.am      4 UNK        -0.4303 
     25 C          26.6248   27.0122    1.2577 C.2       3 UNK         0.5044 
     26 O          26.4355   28.1591    1.6700 O.2       3 UNK        -0.5152 
     27 CA         25.4001   26.1260    0.9514 C.3       3 UNK         0.0319 
     28 CB         24.2190   26.9453    0.3879 C.3       3 UNK        -0.2001 
     29 N          25.6817   24.9613    0.1035 N.am      3 UNK        -0.4354 
     30 C          26.1174   24.9562   -1.1650 C.2       2 UNK         0.4964 
     31 O          26.3468   25.9664   -1.8325 O.2       2 UNK        -0.5047 
     32 CA         26.3735   23.5668   -1.7754 C.3       2 UNK         0.0288 
     33 CB         25.6816   23.4199   -3.1416 C.3       2 UNK        -0.2113 
     34 N          27.8012   23.2786   -1.9284 N.am      2 UNK        -0.4145 
     35 C          28.7296   23.3013   -0.9615 C.2       1 UNK         0.5006 
     36 O          28.4760   23.6185    0.2026 O.2       1 UNK        -0.5103 
     37 C          27.9633   29.2700    5.1316 C.2       5 UNK         0.5055 
     38 O          28.3098   29.9867    6.0710 O.2       5 UNK        -0.5220 
     39 N          27.1355   29.6658    4.1524 N.am      6 UNK        -0.4450 
     40 CA         26.5927   31.0155    4.0025 C.3       6 UNK         0.0367 
     41 CB         25.0588   30.9546    4.0890 C.3       6 UNK        -0.1929 
     42 C          27.0254   31.6588    2.6759 C.2       6 UNK         0.5070 
     43 O          27.2741   32.8639    2.6538 O.2       6 UNK        -0.5237 
     44 N          27.0922   30.8695    1.5924 N.am      7 UNK        -0.4739 
     45 CA         27.3964   31.3464    0.2399 C.3       7 UNK         0.0276 
     46 CB         27.0133   30.2687   -0.7877 C.3       7 UNK        -0.1927 
     47 C          28.8594   31.7780    0.0539 C.2       7 UNK         0.5013 
     48 O          29.1063   32.7554   -0.6539 O.2       7 UNK        -0.5193 
     49 N          29.7926   31.0565    0.6890 N.am      8 UNK        -0.4253 
     50 CA         31.2136   31.4060    0.7324 C.3       8 UNK         0.0242 
     51 CB         32.0763   30.1587    0.4743 C.3       8 UNK        -0.2000 
     52 C          31.5617   32.0477    2.0809 C.2       8 UNK         0.4948 
     53 O          32.3241   33.0142    2.1046 O.2       8 UNK        -0.5275 
     54 N          31.0084   31.5013    3.1763 N.am      9 UNK        -0.4246 
     55 CA         31.0920   31.9380    4.5804 C.3       9 UNK         0.0261 
     56 CB         30.5064   33.3506    4.7654 C.3       9 UNK        -0.1959 
     57 C          32.4898   31.8265    5.2170 C.2       9 UNK         0.5033 
     58 O          32.5934   31.4318    6.3782 O.2       9 UNK        -0.5390 
     59 N          33.5386   32.1339    4.4468 N.am      10 UNK        -0.4215 
     60 CA         34.9504   31.9802    4.8049 C.3       10 UNK         0.0240 
     61 CB         35.7909   32.8675    3.8705 C.3       10 UNK        -0.1982 
     62 C          35.4456   30.5198    4.7606 C.2       10 UNK         0.4970 
     63 O          36.5927   30.2734    5.1356 O.2       10 UNK        -0.4916 
     64 N          34.6008   29.5908    4.2888 N.am      11 UNK        -0.4279 
     65 CA         34.8581   28.1467    4.2165 C.3       11 UNK         0.1003 
     66 C          35.1871   27.5317    5.6061 C.2       11 UNK         0.5709 
     67 N          36.2852   26.7972    5.7237 N.am      11 UNK        -0.7358 
     68 O          34.4317   27.6866    6.5634 O.2       11 UNK        -0.4999 
     69 C69        33.6699   27.4116    3.5337 C.3       12 UNK        -0.0954 
     70 S70        34.1988   25.9201    2.6280 S.3       12 UNK        -0.2268 
     71 C71        33.9625   24.6031    3.8632 C.3       12 UNK         0.0203 
     72 H72        29.1465   19.9595   -4.6096 H         1 UNK         0.0888 
     73 H73        30.7970   20.4043   -5.0526 H         1 UNK         0.0888 
     74 H74        30.4893   19.5479   -3.5407 H         1 UNK         0.0888 
     75 H75        30.5653   20.8910   -1.7524 H         1 UNK         0.3017 
     76 H76        30.5210   23.7592   -1.9684 H         1 UNK         0.0873 
     77 H77        32.1769   22.9086   -0.5532 H         1 UNK         0.0745 
     78 H78        31.0408   23.6344    0.5194 H         1 UNK         0.0745 
     79 H79        29.1404   21.8937    1.9470 H         1 UNK         0.0705 
     80 H80        30.0523   20.7038    2.8283 H         1 UNK         0.0705 
     81 H81        32.7150   22.7622    2.3382 H         1 UNK         0.1334 
     82 H82        32.0394   25.4105    5.6277 H         1 UNK         0.1417 
     83 H83        28.8809   22.8533    4.2603 H         1 UNK         0.1562 
     84 H84        29.9004   25.6071    6.6474 H         1 UNK         0.0748 
     85 H85        29.4052   23.9634    6.9571 H         1 UNK         0.0748 
     86 H86        27.8331   27.0846    7.0076 H         1 UNK         0.0940 
     87 H87        26.5599   27.1384    5.8244 H         1 UNK         0.0940 
     88 H88        29.5089   27.8301    5.4687 H         1 UNK         0.0703 
     89 H89        28.1435   26.4370    3.5183 H         1 UNK         0.3081 
     90 H90        29.1620   27.9917    0.5488 H         1 UNK         0.0719 
     91 H91        30.2907   25.4218    1.7593 H         1 UNK         0.0809 
     92 H92        30.2970   25.8677    0.0466 H         1 UNK         0.0809 
     93 H93        31.2579   26.7771    1.1989 H         1 UNK         0.0809 
     94 H94        27.9255   25.5179    0.7943 H         1 UNK         0.2990 
     95 H95        25.0853   25.7223    1.9147 H         1 UNK         0.0690 
     96 H96        23.3540   26.3122    0.1905 H         1 UNK         0.0788 
     97 H97        24.4844   27.4518   -0.5407 H         1 UNK         0.0788 
     98 H98        23.9005   27.7131    1.0942 H         1 UNK         0.0788 
     99 H99        25.5789   24.0667    0.5635 H         1 UNK         0.2993 
    100 H100       25.9588   22.8083   -1.1082 H         1 UNK         0.0949 
    101 H101       25.7881   22.4081   -3.5338 H         1 UNK         0.0767 
    102 H102       24.6133   23.6263   -3.0626 H         1 UNK         0.0767 
    103 H103       26.0942   24.1097   -3.8792 H         1 UNK         0.0767 
    104 H104       28.1274   23.0604   -2.8656 H         1 UNK         0.3013 
    105 H105       26.9123   29.0074    3.4125 H         1 UNK         0.3121 
    106 H106       26.9532   31.6628    4.8049 H         1 UNK         0.0774 
    107 H107       24.6349   30.3173    3.3116 H         1 UNK         0.0815 
    108 H108       24.6211   31.9472    3.9741 H         1 UNK         0.0815 
    109 H109       24.7333   30.5668    5.0543 H         1 UNK         0.0815 
    110 H110       26.8331   29.8875    1.6703 H         1 UNK         0.2987 
    111 H111       26.7735   32.2238    0.0509 H         1 UNK         0.0949 
    112 H112       27.6042   29.3610   -0.6666 H         1 UNK         0.0806 
    113 H113       25.9615   29.9945   -0.7025 H         1 UNK         0.0806 
    114 H114       27.1732   30.6266   -1.8057 H         1 UNK         0.0806 
    115 H115       29.4973   30.2907    1.2826 H         1 UNK         0.3010 
    116 H116       31.4483   32.1342   -0.0471 H         1 UNK         0.0829 
    117 H117       31.9241   29.3860    1.2261 H         1 UNK         0.0813 
    118 H118       31.8547   29.7218   -0.4995 H         1 UNK         0.0813 
    119 H119       33.1372   30.4122    0.4810 H         1 UNK         0.0813 
    120 H120       30.4915   30.6336    3.0416 H         1 UNK         0.3038 
    121 H121       30.4532   31.2483    5.1323 H         1 UNK         0.0769 
    122 H122       30.4802   33.6249    5.8207 H         1 UNK         0.0811 
    123 H123       31.0943   34.1090    4.2477 H         1 UNK         0.0811 
    124 H124       29.4840   33.4055    4.3912 H         1 UNK         0.0811 
    125 H125       33.3292   32.4925    3.5155 H         1 UNK         0.3204 
    126 H126       35.0857   32.3350    5.8288 H         1 UNK         0.0748 
    127 H127       36.8497   32.8204    4.1292 H         1 UNK         0.0771 
    128 H128       35.6948   32.5594    2.8285 H         1 UNK         0.0771 
    129 H129       35.4896   33.9130    3.9398 H         1 UNK         0.0771 
    130 H130       33.6745   29.8887    4.0285 H         1 UNK         0.2980 
    131 H131       35.7385   28.0430    3.5789 H         1 UNK         0.0545 
    132 H132       36.5061   26.3854    6.6165 H         1 UNK         0.3459 
    133 H133       36.9069   26.6620    4.9419 H         1 UNK         0.3459 
    134 H134       33.2103   28.0591    2.7862 H         1 UNK         0.0616 
    135 H135       32.8713   27.1766    4.2384 H         1 UNK         0.0616 
    136 H136       34.3209   24.9266    4.8397 H         1 UNK         0.0634 
    137 H137       34.5908   23.7561    3.5840 H         1 UNK         0.0634 
@<TRIPOS>BOND
     1    1    2 1    
     2    1   72 1    
     3    1   73 1    
     4    1   74 1    
     5    2    3 2    
     6    2    4 am   BACKBONE|DICT|INTERRES
     7    4    5 1    
     8    4   75 1    
     9    5    6 1    
    10    5   35 1    
    11    5   76 1    
    12    6    7 1    
    13    6   77 1    
    14    6   78 1    
    15    7    8 1    
    16    8    9 1    
    17    8   79 1    
    18    8   80 1    
    19    9   10 ar   
    20    9   14 ar   
    21   10   11 ar   
    22   10   81 1    
    23   11   12 ar   
    24   11   71 1    
    25   12   13 ar   
    26   12   82 1    
    27   13   14 ar   
    28   13   15 1    
    29   14   83 1    
    30   15   16 1    
    31   15   84 1    
    32   15   85 1    
    33   16   17 1    
    34   17   18 1    
    35   17   86 1    
    36   17   87 1    
    37   18   19 1    
    38   18   37 1    
    39   18   88 1    
    40   19   20 am   BACKBONE|DICT|INTERRES
    41   19   89 1    
    42   20   21 2    
    43   20   22 1    
    44   22   23 1    
    45   22   24 1    
    46   22   90 1    
    47   23   91 1    
    48   23   92 1    
    49   23   93 1    
    50   24   25 am   BACKBONE|DICT|INTERRES
    51   24   94 1    
    52   25   26 2    
    53   25   27 1    
    54   27   28 1    
    55   27   29 1    
    56   27   95 1    
    57   28   96 1    
    58   28   97 1    
    59   28   98 1    
    60   29   30 am   BACKBONE|DICT|INTERRES
    61   29   99 1    
    62   30   31 2    
    63   30   32 1    
    64   32   33 1    
    65   32   34 1    
    66   32  100 1    
    67   33  101 1    
    68   33  102 1    
    69   33  103 1    
    70   34   35 am   BACKBONE|DICT|INTERRES
    71   34  104 1    
    72   35   36 2    
    73   37   38 2    
    74   37   39 am   BACKBONE|DICT|INTERRES
    75   39   40 1    
    76   39  105 1    
    77   40   41 1    
    78   40   42 1    
    79   40  106 1    
    80   41  107 1    
    81   41  108 1    
    82   41  109 1    
    83   42   43 2    
    84   42   44 am   BACKBONE|DICT|INTERRES
    85   44   45 1    
    86   44  110 1    
    87   45   46 1    
    88   45   47 1    
    89   45  111 1    
    90   46  112 1    
    91   46  113 1    
    92   46  114 1    
    93   47   48 2    
    94   47   49 am   BACKBONE|DICT|INTERRES
    95   49   50 1    
    96   49  115 1    
    97   50   51 1    
    98   50   52 1    
    99   50  116 1    
   100   51  117 1    
   101   51  118 1    
   102   51  119 1    
   103   52   53 2    
   104   52   54 am   BACKBONE|DICT|INTERRES
   105   54   55 1    
   106   54  120 1    
   107   55   56 1    
   108   55   57 1    
   109   55  121 1    
   110   56  122 1    
   111   56  123 1    
   112   56  124 1    
   113   57   58 2    
   114   57   59 am   BACKBONE|DICT|INTERRES
   115   59   60 1    
   116   59  125 1    
   117   60   61 1    
   118   60   62 1    
   119   60  126 1    
   120   61  127 1    
   121   61  128 1    
   122   61  129 1    
   123   62   63 2    
   124   62   64 am   BACKBONE|DICT|INTERRES
   125   64   65 1    
   126   64  130 1    
   127   65   66 1    
   128   65   69 1    
   129   65  131 1    
   130   66   67 am   BACKBONE|DICT|INTERRES
   131   66   68 2    
   132   67  132 1    
   133   67  133 1    
   134   69   70 1    
   135   69  134 1    
   136   69  135 1    
   137   70   71 1    
   138   71  136 1    
   139   71  137 1    
@<TRIPOS>SUBSTRUCTURE
     1 UNK         1 GROUP             0       ****    0 ROOT    
