@<TRIPOS>MOLECULE
3R136
137   139    1
SMALL
USER_CHARGES


@<TRIPOS>ATOM
      1 CA         27.5793   21.8718    3.9444 C.3       0 UNK        -0.1979 
      2 C          27.5216   21.1941    2.5851 C.2       0 UNK         0.4864 
      3 O          26.4774   20.6566    2.2141 O.2       0 UNK        -0.5359 
      4 N          28.6379   21.2063    1.8440 N.am      1 UNK        -0.4318 
      5 CA         28.7667   20.5849    0.5202 C.3       1 UNK         0.0824 
      6 C6         30.2534   20.3508    0.1404 C.3       12 UNK        -0.0944 
      7 S7         31.2195   21.8865   -0.0919 S.3       12 UNK        -0.2672 
      8 C8         32.1909   22.0082    1.4452 C.3       12 UNK         0.0333 
      9 C9         32.1823   23.4328    1.9837 C.ar      12 UNK        -0.0807 
     10 C10        32.7052   24.4779    1.2144 C.ar      12 UNK        -0.0894 
     11 C11        32.6812   25.7927    1.6867 C.ar      12 UNK        -0.0804 
     12 C12        32.1384   26.0593    2.9461 C.ar      12 UNK        -0.0824 
     13 C13        31.6129   25.0245    3.7273 C.ar      12 UNK        -0.0762 
     14 C14        31.6469   23.7119    3.2454 C.ar      12 UNK        -0.0782 
     15 C15        31.0046   25.3321    5.0904 C.3       12 UNK         0.0230 
     16 S16        29.2317   24.9025    5.2136 S.3       12 UNK        -0.2608 
     17 C17        28.5043   25.4905    3.6419 C.3       12 UNK        -0.0989 
     18 CA         28.7228   26.9945    3.3424 C.3       5 UNK         0.0716 
     19 N          28.7027   27.2461    1.8995 N.am      5 UNK        -0.4135 
     20 C          29.1596   28.3633    1.3166 C.2       4 UNK         0.5031 
     21 O          29.6895   29.2832    1.9384 O.2       4 UNK        -0.5229 
     22 CA         28.9358   28.5219   -0.1990 C.3       4 UNK         0.0329 
     23 CB         30.1767   28.0507   -0.9707 C.3       4 UNK        -0.2001 
     24 N          27.7535   27.8159   -0.7024 N.am      4 UNK        -0.4303 
     25 C          26.5010   27.9650   -0.2456 C.2       3 UNK         0.5044 
     26 O          26.1829   28.8026    0.5989 O.2       3 UNK        -0.5152 
     27 CA         25.4389   26.9702   -0.7487 C.3       3 UNK         0.0319 
     28 CB         24.5718   27.6250   -1.8350 C.3       3 UNK        -0.2001 
     29 N          25.9718   25.6961   -1.2529 N.am      3 UNK        -0.4354 
     30 C          26.7484   24.8391   -0.5728 C.2       2 UNK         0.4964 
     31 O          27.1556   25.0359    0.5776 O.2       2 UNK        -0.5047 
     32 CA         27.1902   23.5858   -1.3368 C.3       2 UNK         0.0288 
     33 CB         28.1926   23.9475   -2.4521 C.3       2 UNK        -0.2113 
     34 N          27.8129   22.6599   -0.3990 N.am      2 UNK        -0.4145 
     35 C          28.0020   21.3479   -0.5865 C.2       1 UNK         0.5006 
     36 O          27.6139   20.7369   -1.5846 O.2       1 UNK        -0.5103 
     37 C          27.7574   27.9065    4.1354 C.2       5 UNK         0.5055 
     38 O          27.9707   28.1034    5.3317 O.2       5 UNK        -0.5220 
     39 N          26.7416   28.4729    3.4689 N.am      6 UNK        -0.4450 
     40 CA         25.8583   29.4934    4.0311 C.3       6 UNK         0.0367 
     41 CB         24.4088   29.2138    3.5992 C.3       6 UNK        -0.1929 
     42 C          26.2949   30.8976    3.5866 C.2       6 UNK         0.5070 
     43 O          26.3285   31.8078    4.4145 O.2       6 UNK        -0.5237 
     44 N          26.5972   31.0567    2.2896 N.am      7 UNK        -0.4739 
     45 CA         26.8862   32.3473    1.6598 C.3       7 UNK         0.0276 
     46 CB         26.7715   32.2089    0.1331 C.3       7 UNK        -0.1927 
     47 C          28.2448   32.9518    2.0510 C.2       7 UNK         0.5013 
     48 O          28.3145   34.1625    2.2681 O.2       7 UNK        -0.5193 
     49 N          29.2911   32.1182    2.1198 N.am      8 UNK        -0.4253 
     50 CA         30.6533   32.5241    2.4782 C.3       8 UNK         0.0242 
     51 CB         31.6432   32.0337    1.4062 C.3       8 UNK        -0.2000 
     52 C          31.0428   31.9825    3.8582 C.2       8 UNK         0.4948 
     53 O          31.6475   32.7154    4.6420 O.2       8 UNK        -0.5275 
     54 N          30.7059   30.7118    4.1255 N.am      9 UNK        -0.4246 
     55 CA         30.9208   29.9352    5.3554 C.3       9 UNK         0.0261 
     56 CB         30.1834   30.5591    6.5555 C.3       9 UNK        -0.1959 
     57 C          32.3946   29.6465    5.6878 C.2       9 UNK         0.5033 
     58 O          32.7366   28.4913    5.9394 O.2       9 UNK        -0.5390 
     59 N          33.2414   30.6823    5.6676 N.am      10 UNK        -0.4215 
     60 CA         34.6861   30.5992    5.8970 C.3       10 UNK         0.0240 
     61 CB         35.2478   32.0151    6.1039 C.3       10 UNK        -0.1982 
     62 C          35.4395   29.8802    4.7639 C.2       10 UNK         0.4970 
     63 O          36.4751   29.2687    5.0281 O.2       10 UNK        -0.4916 
     64 N          34.9067   29.9670    3.5359 N.am      11 UNK        -0.4279 
     65 CA         35.4375   29.3349    2.3167 C.3       11 UNK         0.1003 
     66 C          36.8088   29.9024    1.8287 C.2       11 UNK         0.5709 
     67 N          37.2090   31.0977    2.2472 N.am      11 UNK        -0.7358 
     68 O          37.5113   29.2735    1.0411 O.2       11 UNK        -0.4999 
     69 C69        35.3861   27.7794    2.4035 C.3       12 UNK        -0.0954 
     70 S70        35.0271   26.9933    0.7978 S.3       12 UNK        -0.2268 
     71 C71        33.2091   26.9240    0.8168 C.3       12 UNK         0.0203 
     72 H72        27.2060   21.1994    4.7163 H         1 UNK         0.0888 
     73 H73        28.5965   22.1557    4.2117 H         1 UNK         0.0888 
     74 H74        26.9599   22.7679    3.9450 H         1 UNK         0.0888 
     75 H75        29.4642   21.6727    2.1874 H         1 UNK         0.3017 
     76 H76        28.2981   19.6001    0.5838 H         1 UNK         0.0873 
     77 H77        30.7358   19.7199    0.8883 H         1 UNK         0.0745 
     78 H78        30.3099   19.7818   -0.7897 H         1 UNK         0.0745 
     79 H79        31.8054   21.3152    2.1939 H         1 UNK         0.0705 
     80 H80        33.2184   21.7027    1.2431 H         1 UNK         0.0705 
     81 H81        33.1187   24.2684    0.2371 H         1 UNK         0.1334 
     82 H82        32.1181   27.0762    3.3143 H         1 UNK         0.1417 
     83 H83        31.2430   22.9141    3.8536 H         1 UNK         0.1562 
     84 H84        31.1257   26.3863    5.3417 H         1 UNK         0.0748 
     85 H85        31.5520   24.7800    5.8554 H         1 UNK         0.0748 
     86 H86        27.4407   25.2447    3.6302 H         1 UNK         0.0940 
     87 H87        28.9430   24.8830    2.8486 H         1 UNK         0.0940 
     88 H88        29.7222   27.2704    3.6731 H         1 UNK         0.0703 
     89 H89        28.2542   26.5366    1.3274 H         1 UNK         0.3081 
     90 H90        28.7943   29.5845   -0.3986 H         1 UNK         0.0719 
     91 H91        30.3714   26.9887   -0.8136 H         1 UNK         0.0809 
     92 H92        30.0665   28.2179   -2.0423 H         1 UNK         0.0809 
     93 H93        31.0635   28.5996   -0.6511 H         1 UNK         0.0809 
     94 H94        27.9153   27.1040   -1.3992 H         1 UNK         0.2990 
     95 H95        24.7983   26.7359    0.1039 H         1 UNK         0.0690 
     96 H96        23.7414   26.9802   -2.1236 H         1 UNK         0.0788 
     97 H97        25.1501   27.8519   -2.7316 H         1 UNK         0.0788 
     98 H98        24.1412   28.5624   -1.4791 H         1 UNK         0.0788 
     99 H99        25.7065   25.4511   -2.1966 H         1 UNK         0.2993 
    100 H100       26.3036   23.1154   -1.7676 H         1 UNK         0.0949 
    101 H101       28.5055   23.0631   -3.0075 H         1 UNK         0.0767 
    102 H102       27.7569   24.6380   -3.1749 H         1 UNK         0.0767 
    103 H103       29.0902   24.4173   -2.0469 H         1 UNK         0.0767 
    104 H104       28.1096   23.0862    0.4696 H         1 UNK         0.3013 
    105 H105       26.6420   28.2977    2.4750 H         1 UNK         0.3121 
    106 H106       25.8891   29.4648    5.1226 H         1 UNK         0.0774 
    107 H107       24.2922   29.2349    2.5151 H         1 UNK         0.0815 
    108 H108       23.7291   29.9593    4.0140 H         1 UNK         0.0815 
    109 H109       24.0736   28.2384    3.9519 H         1 UNK         0.0815 
    110 H110       26.4980   30.2589    1.6655 H         1 UNK         0.2987 
    111 H111       26.1165   33.0508    1.9859 H         1 UNK         0.0949 
    112 H112       27.5071   31.5129   -0.2682 H         1 UNK         0.0806 
    113 H113       25.7829   31.8549   -0.1599 H         1 UNK         0.0806 
    114 H114       26.9304   33.1696   -0.3585 H         1 UNK         0.0806 
    115 H115       29.1454   31.1271    1.9556 H         1 UNK         0.3010 
    116 H116       30.7277   33.6128    2.5236 H         1 UNK         0.0829 
    117 H117       31.6536   30.9471    1.3182 H         1 UNK         0.0813 
    118 H118       31.3957   32.4433    0.4268 H         1 UNK         0.0813 
    119 H119       32.6599   32.3517    1.6407 H         1 UNK         0.0813 
    120 H120       30.2811   30.1837    3.3641 H         1 UNK         0.3038 
    121 H121       30.4631   28.9650    5.1678 H         1 UNK         0.0769 
    122 H122       30.2734   29.9246    7.4381 H         1 UNK         0.0811 
    123 H123       30.5790   31.5403    6.8187 H         1 UNK         0.0811 
    124 H124       29.1192   30.6708    6.3461 H         1 UNK         0.0811 
    125 H125       32.8476   31.5934    5.4342 H         1 UNK         0.3204 
    126 H126       34.8493   30.0277    6.8133 H         1 UNK         0.0748 
    127 H127       36.3224   31.9867    6.2903 H         1 UNK         0.0771 
    128 H128       35.0829   32.6480    5.2310 H         1 UNK         0.0771 
    129 H129       34.7847   32.5024    6.9623 H         1 UNK         0.0771 
    130 H130       34.0667   30.5122    3.4196 H         1 UNK         0.2980 
    131 H131       34.7334   29.6433    1.5433 H         1 UNK         0.0545 
    132 H132       38.0905   31.4625    1.9222 H         1 UNK         0.3459 
    133 H133       36.6452   31.6339    2.8862 H         1 UNK         0.3459 
    134 H134       36.3239   27.3789    2.7923 H         1 UNK         0.0616 
    135 H135       34.6216   27.4583    3.1116 H         1 UNK         0.0616 
    136 H136       32.8612   26.7783   -0.2066 H         1 UNK         0.0634 
    137 H137       32.8079   27.8856    1.1416 H         1 UNK         0.0634 
@<TRIPOS>BOND
     1    1    2 1    
     2    1   72 1    
     3    1   73 1    
     4    1   74 1    
     5    2    3 2    
     6    2    4 am   BACKBONE|DICT|INTERRES
     7    4    5 1    
     8    4   75 1    
     9    5    6 1    
    10    5   35 1    
    11    5   76 1    
    12    6    7 1    
    13    6   77 1    
    14    6   78 1    
    15    7    8 1    
    16    8    9 1    
    17    8   79 1    
    18    8   80 1    
    19    9   10 ar   
    20    9   14 ar   
    21   10   11 ar   
    22   10   81 1    
    23   11   12 ar   
    24   11   71 1    
    25   12   13 ar   
    26   12   82 1    
    27   13   14 ar   
    28   13   15 1    
    29   14   83 1    
    30   15   16 1    
    31   15   84 1    
    32   15   85 1    
    33   16   17 1    
    34   17   18 1    
    35   17   86 1    
    36   17   87 1    
    37   18   19 1    
    38   18   37 1    
    39   18   88 1    
    40   19   20 am   BACKBONE|DICT|INTERRES
    41   19   89 1    
    42   20   21 2    
    43   20   22 1    
    44   22   23 1    
    45   22   24 1    
    46   22   90 1    
    47   23   91 1    
    48   23   92 1    
    49   23   93 1    
    50   24   25 am   BACKBONE|DICT|INTERRES
    51   24   94 1    
    52   25   26 2    
    53   25   27 1    
    54   27   28 1    
    55   27   29 1    
    56   27   95 1    
    57   28   96 1    
    58   28   97 1    
    59   28   98 1    
    60   29   30 am   BACKBONE|DICT|INTERRES
    61   29   99 1    
    62   30   31 2    
    63   30   32 1    
    64   32   33 1    
    65   32   34 1    
    66   32  100 1    
    67   33  101 1    
    68   33  102 1    
    69   33  103 1    
    70   34   35 am   BACKBONE|DICT|INTERRES
    71   34  104 1    
    72   35   36 2    
    73   37   38 2    
    74   37   39 am   BACKBONE|DICT|INTERRES
    75   39   40 1    
    76   39  105 1    
    77   40   41 1    
    78   40   42 1    
    79   40  106 1    
    80   41  107 1    
    81   41  108 1    
    82   41  109 1    
    83   42   43 2    
    84   42   44 am   BACKBONE|DICT|INTERRES
    85   44   45 1    
    86   44  110 1    
    87   45   46 1    
    88   45   47 1    
    89   45  111 1    
    90   46  112 1    
    91   46  113 1    
    92   46  114 1    
    93   47   48 2    
    94   47   49 am   BACKBONE|DICT|INTERRES
    95   49   50 1    
    96   49  115 1    
    97   50   51 1    
    98   50   52 1    
    99   50  116 1    
   100   51  117 1    
   101   51  118 1    
   102   51  119 1    
   103   52   53 2    
   104   52   54 am   BACKBONE|DICT|INTERRES
   105   54   55 1    
   106   54  120 1    
   107   55   56 1    
   108   55   57 1    
   109   55  121 1    
   110   56  122 1    
   111   56  123 1    
   112   56  124 1    
   113   57   58 2    
   114   57   59 am   BACKBONE|DICT|INTERRES
   115   59   60 1    
   116   59  125 1    
   117   60   61 1    
   118   60   62 1    
   119   60  126 1    
   120   61  127 1    
   121   61  128 1    
   122   61  129 1    
   123   62   63 2    
   124   62   64 am   BACKBONE|DICT|INTERRES
   125   64   65 1    
   126   64  130 1    
   127   65   66 1    
   128   65   69 1    
   129   65  131 1    
   130   66   67 am   BACKBONE|DICT|INTERRES
   131   66   68 2    
   132   67  132 1    
   133   67  133 1    
   134   69   70 1    
   135   69  134 1    
   136   69  135 1    
   137   70   71 1    
   138   71  136 1    
   139   71  137 1    
@<TRIPOS>SUBSTRUCTURE
     1 UNK         1 GROUP             0       ****    0 ROOT    
