@<TRIPOS>MOLECULE
3R136
137   139    1
SMALL
USER_CHARGES


@<TRIPOS>ATOM
      1 CA         29.0194   27.2140    6.4024 C.3       0 UNK        -0.1979 
      2 C          29.0103   26.8958    4.9172 C.2       0 UNK         0.4864 
      3 O          28.3230   25.9634    4.4996 O.2       0 UNK        -0.5359 
      4 N          29.7338   27.6821    4.1065 N.am      1 UNK        -0.4318 
      5 CA         29.7751   27.5496    2.6444 C.3       1 UNK         0.0824 
      6 C6         30.8172   28.4788    1.9836 C.3       12 UNK        -0.0944 
      7 S7         32.5244   28.2525    2.5686 S.3       12 UNK        -0.2672 
      8 C8         33.2852   27.3548    1.1768 C.3       12 UNK         0.0333 
      9 C9         32.8338   25.9029    1.0571 C.ar      12 UNK        -0.0807 
     10 C10        32.3850   25.1844    2.1671 C.ar      12 UNK        -0.0894 
     11 C11        32.0082   23.8486    2.0640 C.ar      12 UNK        -0.0804 
     12 C12        32.0643   23.2202    0.8144 C.ar      12 UNK        -0.0824 
     13 C13        32.4997   23.9271   -0.3139 C.ar      12 UNK        -0.0762 
     14 C14        32.8994   25.2607   -0.1800 C.ar      12 UNK        -0.0782 
     15 C15        32.5649   23.2513   -1.6768 C.3       12 UNK         0.0230 
     16 S16        30.9426   23.1836   -2.5055 S.3       12 UNK        -0.2608 
     17 C17        30.5548   24.9472   -2.8120 C.3       12 UNK        -0.0989 
     18 CA         29.0726   25.2907   -2.5113 C.3       5 UNK         0.0716 
     19 N          28.6629   24.8316   -1.1777 N.am      5 UNK        -0.4135 
     20 C          27.4123   24.5202   -0.8123 C.2       4 UNK         0.5031 
     21 O          26.4234   24.7267   -1.5172 O.2       4 UNK        -0.5229 
     22 CA         27.2240   23.8406    0.5533 C.3       4 UNK         0.0329 
     23 CB         28.5373   23.4279    1.2487 C.3       4 UNK        -0.2001 
     24 N          26.4860   24.7371    1.4351 N.am      4 UNK        -0.4303 
     25 C          25.4077   24.4105    2.1592 C.2       3 UNK         0.5044 
     26 O          24.8721   23.3014    2.1199 O.2       3 UNK        -0.5152 
     27 CA         24.8302   25.4775    3.1117 C.3       3 UNK         0.0319 
     28 CB         24.8570   24.9793    4.5674 C.3       3 UNK        -0.2001 
     29 N          25.5537   26.7489    3.0432 N.am      3 UNK        -0.4354 
     30 C          25.2506   27.7584    2.2146 C.2       2 UNK         0.4964 
     31 O          24.2760   27.7573    1.4629 O.2       2 UNK        -0.5047 
     32 CA         26.2035   28.9695    2.2000 C.3       2 UNK         0.0288 
     33 CB         25.6602   30.0922    3.0979 C.3       2 UNK        -0.2113 
     34 N          27.5780   28.6603    2.6055 N.am      2 UNK        -0.4145 
     35 C          28.3973   27.7887    1.9988 C.2       1 UNK         0.5006 
     36 O          28.0895   27.1589    0.9875 O.2       1 UNK        -0.5103 
     37 C          28.7647   26.7810   -2.8002 C.2       5 UNK         0.5055 
     38 O          29.0193   27.2200   -3.9225 O.2       5 UNK        -0.5220 
     39 N          28.2116   27.5116   -1.8195 N.am      6 UNK        -0.4450 
     40 CA         27.7583   28.9064   -1.8495 C.3       6 UNK         0.0367 
     41 CB         26.7669   29.1785   -3.0008 C.3       6 UNK        -0.1929 
     42 C          28.9212   29.9123   -1.8190 C.2       6 UNK         0.5070 
     43 O          29.4742   30.2610   -2.8630 O.2       6 UNK        -0.5237 
     44 N          29.2382   30.3903   -0.6114 N.am      7 UNK        -0.4739 
     45 CA         30.1467   31.4979   -0.3161 C.3       7 UNK         0.0276 
     46 CB         31.6222   31.0655   -0.4549 C.3       7 UNK        -0.1927 
     47 C          29.8138   32.0127    1.0952 C.2       7 UNK         0.5013 
     48 O          28.9228   31.4617    1.7481 O.2       7 UNK        -0.5193 
     49 N          30.5249   33.0527    1.5462 N.am      8 UNK        -0.4253 
     50 CA         30.3088   33.6915    2.8505 C.3       8 UNK         0.0242 
     51 CB         30.7100   35.1733    2.7420 C.3       8 UNK        -0.2000 
     52 C          31.0583   33.0216    4.0206 C.2       8 UNK         0.4948 
     53 O          30.7738   33.3570    5.1719 O.2       8 UNK        -0.5275 
     54 N          32.0244   32.1401    3.7263 N.am      9 UNK        -0.4246 
     55 CA         32.8906   31.4895    4.7157 C.3       9 UNK         0.0261 
     56 CB         34.2144   31.0892    4.0361 C.3       9 UNK        -0.1959 
     57 C          32.2102   30.3171    5.4553 C.2       9 UNK         0.5033 
     58 O          31.0859   29.9287    5.1283 O.2       9 UNK        -0.5390 
     59 N          32.9076   29.7859    6.4675 N.am      10 UNK        -0.4215 
     60 CA         32.3731   28.8488    7.4607 C.3       10 UNK         0.0240 
     61 CB         32.9665   29.2235    8.8323 C.3       10 UNK        -0.1982 
     62 C          32.6131   27.3545    7.1580 C.2       10 UNK         0.4970 
     63 O          32.3180   26.5370    8.0305 O.2       10 UNK        -0.4916 
     64 N          33.1531   27.0039    5.9794 N.am      11 UNK        -0.4279 
     65 CA         33.6155   25.6368    5.6422 C.3       11 UNK         0.1003 
     66 C          34.8607   25.1881    6.4772 C.2       11 UNK         0.5709 
     67 N          35.6904   26.1112    6.9518 N.am      11 UNK        -0.7358 
     68 O          35.0999   24.0028    6.6933 O.2       11 UNK        -0.4999 
     69 C69        32.4483   24.5925    5.6137 C.3       12 UNK        -0.0954 
     70 S70        32.7865   23.0795    4.6296 S.3       12 UNK        -0.2268 
     71 C71        31.5262   23.1107    3.3068 C.3       12 UNK         0.0203 
     72 H72        29.3335   28.2400    6.5871 H         1 UNK         0.0888 
     73 H73        28.0197   27.0928    6.8187 H         1 UNK         0.0888 
     74 H74        29.6907   26.5369    6.9290 H         1 UNK         0.0888 
     75 H75        30.2694   28.4619    4.4920 H         1 UNK         0.3017 
     76 H76        30.0419   26.5166    2.4202 H         1 UNK         0.0873 
     77 H77        30.7967   28.3629    0.8980 H         1 UNK         0.0745 
     78 H78        30.5626   29.5158    2.1932 H         1 UNK         0.0745 
     79 H79        33.0828   27.8964    0.2513 H         1 UNK         0.0705 
     80 H80        34.3671   27.3660    1.3127 H         1 UNK         0.0705 
     81 H81        32.3226   25.6630    3.1293 H         1 UNK         0.1334 
     82 H82        31.7658   22.1853    0.7153 H         1 UNK         0.1417 
     83 H83        33.2615   25.8030   -1.0431 H         1 UNK         0.1562 
     84 H84        32.9395   22.2336   -1.5577 H         1 UNK         0.0748 
     85 H85        33.2783   23.7603   -2.3271 H         1 UNK         0.0748 
     86 H86        30.7879   25.1580   -3.8576 H         1 UNK         0.0940 
     87 H87        31.2118   25.5896   -2.2285 H         1 UNK         0.0940 
     88 H88        28.4723   24.7307   -3.2321 H         1 UNK         0.0703 
     89 H89        29.4148   24.6299   -0.5352 H         1 UNK         0.3081 
     90 H90        26.6457   22.9344    0.3619 H         1 UNK         0.0719 
     91 H91        29.1527   24.2914    1.5037 H         1 UNK         0.0809 
     92 H92        28.3332   22.8917    2.1756 H         1 UNK         0.0809 
     93 H93        29.1272   22.7597    0.6198 H         1 UNK         0.0809 
     94 H94        26.8360   25.6883    1.4743 H         1 UNK         0.2990 
     95 H95        23.7872   25.6338    2.8285 H         1 UNK         0.0690 
     96 H96        24.4277   25.7155    5.2471 H         1 UNK         0.0788 
     97 H97        25.8732   24.7657    4.9015 H         1 UNK         0.0788 
     98 H98        24.2779   24.0616    4.6792 H         1 UNK         0.0788 
     99 H99        26.3940   26.8094    3.6058 H         1 UNK         0.2993 
    100 H100       26.2359   29.3420    1.1755 H         1 UNK         0.0949 
    101 H101       24.6468   30.3714    2.8055 H         1 UNK         0.0767 
    102 H102       25.6272   29.7912    4.1458 H         1 UNK         0.0767 
    103 H103       26.2756   30.9896    3.0241 H         1 UNK         0.0767 
    104 H104       27.9312   29.1547    3.4126 H         1 UNK         0.3013 
    105 H105       28.1097   27.0684   -0.9097 H         1 UNK         0.3121 
    106 H106       27.1904   29.0391   -0.9288 H         1 UNK         0.0774 
    107 H107       26.3464   30.1812   -2.9172 H         1 UNK         0.0815 
    108 H108       27.2414   29.1130   -3.9800 H         1 UNK         0.0815 
    109 H109       25.9350   28.4745   -2.9823 H         1 UNK         0.0815 
    110 H110       28.7010   30.1048    0.1993 H         1 UNK         0.2987 
    111 H111       29.9407   32.3061   -1.0212 H         1 UNK         0.0949 
    112 H112       31.9245   30.3642    0.3200 H         1 UNK         0.0806 
    113 H113       31.8142   30.5957   -1.4194 H         1 UNK         0.0806 
    114 H114       32.2902   31.9244   -0.3869 H         1 UNK         0.0806 
    115 H115       31.2368   33.4576    0.9547 H         1 UNK         0.3010 
    116 H116       29.2440   33.6517    3.0921 H         1 UNK         0.0829 
    117 H117       30.1357   35.6848    1.9692 H         1 UNK         0.0813 
    118 H118       30.5246   35.6993    3.6797 H         1 UNK         0.0813 
    119 H119       31.7689   35.2897    2.5079 H         1 UNK         0.0813 
    120 H120       32.1642   31.8845    2.7612 H         1 UNK         0.3038 
    121 H121       33.1340   32.2278    5.4832 H         1 UNK         0.0769 
    122 H122       34.7786   31.9748    3.7429 H         1 UNK         0.0811 
    123 H123       34.0559   30.4999    3.1355 H         1 UNK         0.0811 
    124 H124       34.8602   30.5102    4.6966 H         1 UNK         0.0811 
    125 H125       33.8331   30.1462    6.6529 H         1 UNK         0.3204 
    126 H126       31.2934   28.9857    7.5314 H         1 UNK         0.0748 
    127 H127       32.7651   30.2659    9.0807 H         1 UNK         0.0771 
    128 H128       32.5335   28.6193    9.6310 H         1 UNK         0.0771 
    129 H129       34.0466   29.0738    8.8605 H         1 UNK         0.0771 
    130 H130       33.3525   27.7237    5.2999 H         1 UNK         0.2980 
    131 H131       34.0001   25.7190    4.6261 H         1 UNK         0.0545 
    132 H132       36.4938   25.8192    7.4856 H         1 UNK         0.3459 
    133 H133       35.5278   27.0895    6.7801 H         1 UNK         0.3459 
    134 H134       31.5441   25.0614    5.2247 H         1 UNK         0.0616 
    135 H135       32.1959   24.2789    6.6276 H         1 UNK         0.0616 
    136 H136       31.2745   22.0795    3.0550 H         1 UNK         0.0634 
    137 H137       30.6061   23.5678    3.6740 H         1 UNK         0.0634 
@<TRIPOS>BOND
     1    1    2 1    
     2    1   72 1    
     3    1   73 1    
     4    1   74 1    
     5    2    3 2    
     6    2    4 am   BACKBONE|DICT|INTERRES
     7    4    5 1    
     8    4   75 1    
     9    5    6 1    
    10    5   35 1    
    11    5   76 1    
    12    6    7 1    
    13    6   77 1    
    14    6   78 1    
    15    7    8 1    
    16    8    9 1    
    17    8   79 1    
    18    8   80 1    
    19    9   10 ar   
    20    9   14 ar   
    21   10   11 ar   
    22   10   81 1    
    23   11   12 ar   
    24   11   71 1    
    25   12   13 ar   
    26   12   82 1    
    27   13   14 ar   
    28   13   15 1    
    29   14   83 1    
    30   15   16 1    
    31   15   84 1    
    32   15   85 1    
    33   16   17 1    
    34   17   18 1    
    35   17   86 1    
    36   17   87 1    
    37   18   19 1    
    38   18   37 1    
    39   18   88 1    
    40   19   20 am   BACKBONE|DICT|INTERRES
    41   19   89 1    
    42   20   21 2    
    43   20   22 1    
    44   22   23 1    
    45   22   24 1    
    46   22   90 1    
    47   23   91 1    
    48   23   92 1    
    49   23   93 1    
    50   24   25 am   BACKBONE|DICT|INTERRES
    51   24   94 1    
    52   25   26 2    
    53   25   27 1    
    54   27   28 1    
    55   27   29 1    
    56   27   95 1    
    57   28   96 1    
    58   28   97 1    
    59   28   98 1    
    60   29   30 am   BACKBONE|DICT|INTERRES
    61   29   99 1    
    62   30   31 2    
    63   30   32 1    
    64   32   33 1    
    65   32   34 1    
    66   32  100 1    
    67   33  101 1    
    68   33  102 1    
    69   33  103 1    
    70   34   35 am   BACKBONE|DICT|INTERRES
    71   34  104 1    
    72   35   36 2    
    73   37   38 2    
    74   37   39 am   BACKBONE|DICT|INTERRES
    75   39   40 1    
    76   39  105 1    
    77   40   41 1    
    78   40   42 1    
    79   40  106 1    
    80   41  107 1    
    81   41  108 1    
    82   41  109 1    
    83   42   43 2    
    84   42   44 am   BACKBONE|DICT|INTERRES
    85   44   45 1    
    86   44  110 1    
    87   45   46 1    
    88   45   47 1    
    89   45  111 1    
    90   46  112 1    
    91   46  113 1    
    92   46  114 1    
    93   47   48 2    
    94   47   49 am   BACKBONE|DICT|INTERRES
    95   49   50 1    
    96   49  115 1    
    97   50   51 1    
    98   50   52 1    
    99   50  116 1    
   100   51  117 1    
   101   51  118 1    
   102   51  119 1    
   103   52   53 2    
   104   52   54 am   BACKBONE|DICT|INTERRES
   105   54   55 1    
   106   54  120 1    
   107   55   56 1    
   108   55   57 1    
   109   55  121 1    
   110   56  122 1    
   111   56  123 1    
   112   56  124 1    
   113   57   58 2    
   114   57   59 am   BACKBONE|DICT|INTERRES
   115   59   60 1    
   116   59  125 1    
   117   60   61 1    
   118   60   62 1    
   119   60  126 1    
   120   61  127 1    
   121   61  128 1    
   122   61  129 1    
   123   62   63 2    
   124   62   64 am   BACKBONE|DICT|INTERRES
   125   64   65 1    
   126   64  130 1    
   127   65   66 1    
   128   65   69 1    
   129   65  131 1    
   130   66   67 am   BACKBONE|DICT|INTERRES
   131   66   68 2    
   132   67  132 1    
   133   67  133 1    
   134   69   70 1    
   135   69  134 1    
   136   69  135 1    
   137   70   71 1    
   138   71  136 1    
   139   71  137 1    
@<TRIPOS>SUBSTRUCTURE
     1 UNK         1 GROUP             0       ****    0 ROOT    
