@<TRIPOS>MOLECULE
3R136
137   139    1
SMALL
USER_CHARGES


@<TRIPOS>ATOM
      1 CA         27.3751   22.8531   -3.2229 C.3       0 UNK        -0.1979 
      2 C          27.8029   22.4336   -1.8236 C.2       0 UNK         0.4864 
      3 O          27.1953   21.5256   -1.2544 O.2       0 UNK        -0.5359 
      4 N          28.8408   23.0934   -1.2875 N.am      1 UNK        -0.4318 
      5 CA         29.4206   22.9281    0.0549 C.3       1 UNK         0.0824 
      6 C6         29.8859   21.4767    0.3811 C.3       12 UNK        -0.0944 
      7 S7         31.1090   20.8422   -0.8192 S.3       12 UNK        -0.2672 
      8 C8         32.6717   20.9513    0.1208 C.3       12 UNK         0.0333 
      9 C9         32.9506   22.3572    0.6394 C.ar      12 UNK        -0.0807 
     10 C10        33.1981   22.5714    1.9990 C.ar      12 UNK        -0.0894 
     11 C11        33.4144   23.8645    2.4852 C.ar      12 UNK        -0.0804 
     12 C12        33.3577   24.9516    1.6079 C.ar      12 UNK        -0.0824 
     13 C13        33.1058   24.7476    0.2487 C.ar      12 UNK        -0.0762 
     14 C14        32.9398   23.4478   -0.2348 C.ar      12 UNK        -0.0782 
     15 C15        32.9657   25.9246   -0.7001 C.3       12 UNK         0.0230 
     16 S16        31.2098   26.3466   -0.9311 S.3       12 UNK        -0.2608 
     17 C17        30.8737   27.3431    0.5598 C.3       12 UNK        -0.0989 
     18 CA         29.6748   28.2889    0.3171 C.3       5 UNK         0.0716 
     19 N          28.4037   27.5650    0.2434 N.am      5 UNK        -0.4135 
     20 C          27.3386   27.9715   -0.4600 C.2       4 UNK         0.5031 
     21 O          27.3191   28.9892   -1.1528 O.2       4 UNK        -0.5229 
     22 CA         26.0729   27.1025   -0.3629 C.3       4 UNK         0.0329 
     23 CB         26.1145   25.9723   -1.4027 C.3       4 UNK        -0.2001 
     24 N          25.8840   26.5390    0.9770 N.am      4 UNK        -0.4303 
     25 C          25.5181   27.2693    2.0423 C.2       3 UNK         0.5044 
     26 O          25.2450   28.4683    1.9834 O.2       3 UNK        -0.5152 
     27 CA         25.4661   26.5659    3.4119 C.3       3 UNK         0.0319 
     28 CB         24.0364   26.0884    3.7114 C.3       3 UNK        -0.2001 
     29 N          26.3897   25.4385    3.5637 N.am      3 UNK        -0.4354 
     30 C          27.7201   25.4763    3.4042 C.2       2 UNK         0.4964 
     31 O          28.3424   26.4857    3.0710 O.2       2 UNK        -0.5047 
     32 CA         28.4888   24.1558    3.5996 C.3       2 UNK         0.0288 
     33 CB         27.6454   23.0169    4.2175 C.3       2 UNK        -0.2113 
     34 N          29.1183   23.6922    2.3571 N.am      2 UNK        -0.4145 
     35 C          28.5208   23.5066    1.1682 C.2       1 UNK         0.5006 
     36 O          27.3389   23.7885    0.9467 O.2       1 UNK        -0.5103 
     37 C          29.6192   29.4117    1.3671 C.2       5 UNK         0.5055 
     38 O          30.2614   30.4414    1.1608 O.2       5 UNK        -0.5220 
     39 N          28.8307   29.2321    2.4396 N.am      6 UNK        -0.4450 
     40 CA         28.6455   30.1784    3.5492 C.3       6 UNK         0.0367 
     41 CB         27.6874   29.5741    4.5860 C.3       6 UNK        -0.1929 
     42 C          28.1861   31.5933    3.1530 C.2       6 UNK         0.5070 
     43 O          28.4139   32.5305    3.9177 O.2       6 UNK        -0.5237 
     44 N          27.5884   31.7372    1.9627 N.am      7 UNK        -0.4739 
     45 CA         27.2810   33.0232    1.3320 C.3       7 UNK         0.0276 
     46 CB         26.4102   32.7719    0.0905 C.3       7 UNK        -0.1927 
     47 C          28.5348   33.8407    0.9552 C.2       7 UNK         0.5013 
     48 O          28.4432   35.0666    0.8781 O.2       7 UNK        -0.5193 
     49 N          29.6681   33.1609    0.7305 N.am      8 UNK        -0.4253 
     50 CA         30.9719   33.7558    0.4429 C.3       8 UNK         0.0242 
     51 CB         31.5845   33.0797   -0.7961 C.3       8 UNK        -0.2000 
     52 C          31.9045   33.6268    1.6562 C.2       8 UNK         0.4948 
     53 O          32.4545   34.6374    2.0962 O.2       8 UNK        -0.5275 
     54 N          32.0637   32.4046    2.1824 N.am      9 UNK        -0.4246 
     55 CA         32.9058   32.0886    3.3353 C.3       9 UNK         0.0261 
     56 CB         34.3955   32.0828    2.9397 C.3       9 UNK        -0.1959 
     57 C          32.4835   30.7274    3.8968 C.2       9 UNK         0.5033 
     58 O          32.5032   29.7374    3.1628 O.2       9 UNK        -0.5390 
     59 N          32.1004   30.7005    5.1787 N.am      10 UNK        -0.4215 
     60 CA         31.6684   29.4946    5.8892 C.3       10 UNK         0.0240 
     61 CB         30.8971   29.9101    7.1531 C.3       10 UNK        -0.1982 
     62 C          32.8455   28.5723    6.2434 C.2       10 UNK         0.4970 
     63 O          33.9869   29.0295    6.3392 O.2       10 UNK        -0.4916 
     64 N          32.5264   27.2914    6.4584 N.am      11 UNK        -0.4279 
     65 CA         33.4844   26.2238    6.7878 C.3       11 UNK         0.1003 
     66 C          34.1008   26.3057    8.2156 C.2       11 UNK         0.5709 
     67 N          33.5814   27.1252    9.1221 N.am      11 UNK        -0.7358 
     68 O          35.0747   25.6137    8.5029 O.2       11 UNK        -0.4999 
     69 C69        32.8821   24.8161    6.5299 C.3       12 UNK        -0.0954 
     70 S70        32.2106   24.6140    4.8459 S.3       12 UNK        -0.2268 
     71 C71        33.7051   24.0902    3.9590 C.3       12 UNK         0.0203 
     72 H72        26.3379   23.1872   -3.2123 H         1 UNK         0.0888 
     73 H73        27.9879   23.6658   -3.6123 H         1 UNK         0.0888 
     74 H74        27.4552   22.0098   -3.9083 H         1 UNK         0.0888 
     75 H75        29.2707   23.8272   -1.8323 H         1 UNK         0.3017 
     76 H76        30.3009   23.5678    0.0519 H         1 UNK         0.0873 
     77 H77        30.3233   21.4203    1.3792 H         1 UNK         0.0745 
     78 H78        29.0379   20.7911    0.3998 H         1 UNK         0.0745 
     79 H79        32.6355   20.2336    0.9419 H         1 UNK         0.0705 
     80 H80        33.4949   20.6416   -0.5242 H         1 UNK         0.0705 
     81 H81        33.2191   21.7327    2.6819 H         1 UNK         0.1334 
     82 H82        33.4925   25.9556    1.9877 H         1 UNK         0.1417 
     83 H83        32.7405   23.2888   -1.2863 H         1 UNK         0.1562 
     84 H84        33.3972   25.6683   -1.6689 H         1 UNK         0.0748 
     85 H85        33.5229   26.7902   -0.3388 H         1 UNK         0.0748 
     86 H86        31.7706   27.9186    0.8004 H         1 UNK         0.0940 
     87 H87        30.6951   26.6831    1.4112 H         1 UNK         0.0940 
     88 H88        29.8409   28.7880   -0.6407 H         1 UNK         0.0703 
     89 H89        28.3167   26.7490    0.8335 H         1 UNK         0.3081 
     90 H90        25.2138   27.7377   -0.5901 H         1 UNK         0.0719 
     91 H91        26.9778   25.3245   -1.2558 H         1 UNK         0.0809 
     92 H92        25.2183   25.3535   -1.3565 H         1 UNK         0.0809 
     93 H93        26.1798   26.3758   -2.4141 H         1 UNK         0.0809 
     94 H94        26.1175   25.5596    1.1045 H         1 UNK         0.2990 
     95 H95        25.7387   27.3042    4.1671 H         1 UNK         0.0690 
     96 H96        23.9544   25.6859    4.7213 H         1 UNK         0.0788 
     97 H97        23.7148   25.3149    3.0127 H         1 UNK         0.0788 
     98 H98        23.3252   26.9124    3.6355 H         1 UNK         0.0788 
     99 H99        25.9744   24.5489    3.7994 H         1 UNK         0.2993 
    100 H100       29.2956   24.3842    4.2966 H         1 UNK         0.0949 
    101 H101       26.8383   22.6943    3.5582 H         1 UNK         0.0767 
    102 H102       28.2659   22.1440    4.4214 H         1 UNK         0.0767 
    103 H103       27.2048   23.3188    5.1689 H         1 UNK         0.0767 
    104 H104       30.1073   23.4958    2.4294 H         1 UNK         0.3013 
    105 H105       28.4119   28.3142    2.5639 H         1 UNK         0.3121 
    106 H106       29.6174   30.2999    4.0206 H         1 UNK         0.0774 
    107 H107       26.6811   29.4679    4.1812 H         1 UNK         0.0815 
    108 H108       27.6157   30.2123    5.4678 H         1 UNK         0.0815 
    109 H109       28.0264   28.5947    4.9238 H         1 UNK         0.0815 
    110 H110       27.4241   30.9066    1.4114 H         1 UNK         0.2987 
    111 H111       26.7053   33.6187    2.0439 H         1 UNK         0.0949 
    112 H112       26.9274   32.1568   -0.6475 H         1 UNK         0.0806 
    113 H113       25.4796   32.2685    0.3534 H         1 UNK         0.0806 
    114 H114       26.1431   33.7111   -0.3963 H         1 UNK         0.0806 
    115 H115       29.6629   32.1511    0.8565 H         1 UNK         0.3010 
    116 H116       30.8614   34.8195    0.2213 H         1 UNK         0.0829 
    117 H117       30.9586   33.2303   -1.6758 H         1 UNK         0.0813 
    118 H118       32.5669   33.4967   -1.0220 H         1 UNK         0.0813 
    119 H119       31.7095   32.0051   -0.6572 H         1 UNK         0.0813 
    120 H120       31.5518   31.6148    1.7886 H         1 UNK         0.3038 
    121 H121       32.7483   32.8519    4.1005 H         1 UNK         0.0769 
    122 H122       34.5931   31.3733    2.1352 H         1 UNK         0.0811 
    123 H123       35.0223   31.7999    3.7864 H         1 UNK         0.0811 
    124 H124       34.7267   33.0665    2.6073 H         1 UNK         0.0811 
    125 H125       32.1585   31.5481    5.7245 H         1 UNK         0.3204 
    126 H126       30.9935   28.9335    5.2394 H         1 UNK         0.0748 
    127 H127       30.5134   29.0395    7.6864 H         1 UNK         0.0771 
    128 H128       31.5285   30.4661    7.8475 H         1 UNK         0.0771 
    129 H129       30.0392   30.5359    6.9050 H         1 UNK         0.0771 
    130 H130       31.5650   26.9997    6.3675 H         1 UNK         0.2980 
    131 H131       34.3274   26.3419    6.1046 H         1 UNK         0.0545 
    132 H132       32.7859   27.6996    8.8969 H         1 UNK         0.3459 
    133 H133       33.9940   27.1698   10.0405 H         1 UNK         0.3459 
    134 H134       32.0720   24.6196    7.2344 H         1 UNK         0.0616 
    135 H135       33.6273   24.0374    6.7038 H         1 UNK         0.0616 
    136 H136       34.4788   24.8515    4.0687 H         1 UNK         0.0634 
    137 H137       34.0974   23.1796    4.4143 H         1 UNK         0.0634 
@<TRIPOS>BOND
     1    1    2 1    
     2    1   72 1    
     3    1   73 1    
     4    1   74 1    
     5    2    3 2    
     6    2    4 am   BACKBONE|DICT|INTERRES
     7    4    5 1    
     8    4   75 1    
     9    5    6 1    
    10    5   35 1    
    11    5   76 1    
    12    6    7 1    
    13    6   77 1    
    14    6   78 1    
    15    7    8 1    
    16    8    9 1    
    17    8   79 1    
    18    8   80 1    
    19    9   10 ar   
    20    9   14 ar   
    21   10   11 ar   
    22   10   81 1    
    23   11   12 ar   
    24   11   71 1    
    25   12   13 ar   
    26   12   82 1    
    27   13   14 ar   
    28   13   15 1    
    29   14   83 1    
    30   15   16 1    
    31   15   84 1    
    32   15   85 1    
    33   16   17 1    
    34   17   18 1    
    35   17   86 1    
    36   17   87 1    
    37   18   19 1    
    38   18   37 1    
    39   18   88 1    
    40   19   20 am   BACKBONE|DICT|INTERRES
    41   19   89 1    
    42   20   21 2    
    43   20   22 1    
    44   22   23 1    
    45   22   24 1    
    46   22   90 1    
    47   23   91 1    
    48   23   92 1    
    49   23   93 1    
    50   24   25 am   BACKBONE|DICT|INTERRES
    51   24   94 1    
    52   25   26 2    
    53   25   27 1    
    54   27   28 1    
    55   27   29 1    
    56   27   95 1    
    57   28   96 1    
    58   28   97 1    
    59   28   98 1    
    60   29   30 am   BACKBONE|DICT|INTERRES
    61   29   99 1    
    62   30   31 2    
    63   30   32 1    
    64   32   33 1    
    65   32   34 1    
    66   32  100 1    
    67   33  101 1    
    68   33  102 1    
    69   33  103 1    
    70   34   35 am   BACKBONE|DICT|INTERRES
    71   34  104 1    
    72   35   36 2    
    73   37   38 2    
    74   37   39 am   BACKBONE|DICT|INTERRES
    75   39   40 1    
    76   39  105 1    
    77   40   41 1    
    78   40   42 1    
    79   40  106 1    
    80   41  107 1    
    81   41  108 1    
    82   41  109 1    
    83   42   43 2    
    84   42   44 am   BACKBONE|DICT|INTERRES
    85   44   45 1    
    86   44  110 1    
    87   45   46 1    
    88   45   47 1    
    89   45  111 1    
    90   46  112 1    
    91   46  113 1    
    92   46  114 1    
    93   47   48 2    
    94   47   49 am   BACKBONE|DICT|INTERRES
    95   49   50 1    
    96   49  115 1    
    97   50   51 1    
    98   50   52 1    
    99   50  116 1    
   100   51  117 1    
   101   51  118 1    
   102   51  119 1    
   103   52   53 2    
   104   52   54 am   BACKBONE|DICT|INTERRES
   105   54   55 1    
   106   54  120 1    
   107   55   56 1    
   108   55   57 1    
   109   55  121 1    
   110   56  122 1    
   111   56  123 1    
   112   56  124 1    
   113   57   58 2    
   114   57   59 am   BACKBONE|DICT|INTERRES
   115   59   60 1    
   116   59  125 1    
   117   60   61 1    
   118   60   62 1    
   119   60  126 1    
   120   61  127 1    
   121   61  128 1    
   122   61  129 1    
   123   62   63 2    
   124   62   64 am   BACKBONE|DICT|INTERRES
   125   64   65 1    
   126   64  130 1    
   127   65   66 1    
   128   65   69 1    
   129   65  131 1    
   130   66   67 am   BACKBONE|DICT|INTERRES
   131   66   68 2    
   132   67  132 1    
   133   67  133 1    
   134   69   70 1    
   135   69  134 1    
   136   69  135 1    
   137   70   71 1    
   138   71  136 1    
   139   71  137 1    
@<TRIPOS>SUBSTRUCTURE
     1 UNK         1 GROUP             0       ****    0 ROOT    
