@<TRIPOS>MOLECULE
3R136
137   139    1
SMALL
USER_CHARGES


@<TRIPOS>ATOM
      1 CA         23.8159   28.0079    3.7703 C.3       0 UNK        -0.1979 
      2 C          24.5446   26.6834    3.9418 C.2       0 UNK         0.4864 
      3 O          23.9942   25.7562    4.5385 O.2       0 UNK        -0.5359 
      4 N          25.7762   26.5893    3.4258 N.am      1 UNK        -0.4318 
      5 CA         26.5839   25.3650    3.4031 C.3       1 UNK         0.0824 
      6 C6         28.0789   25.6918    3.1612 C.3       12 UNK        -0.0944 
      7 S7         28.8131   26.5395    4.5982 S.3       12 UNK        -0.2672 
      8 C8         30.5331   25.9321    4.5202 C.3       12 UNK         0.0333 
      9 C9         31.3225   26.4263    3.3069 C.ar      12 UNK        -0.0807 
     10 C10        32.3046   25.6032    2.7479 C.ar      12 UNK        -0.0894 
     11 C11        33.0560   26.0315    1.6492 C.ar      12 UNK        -0.0804 
     12 C12        32.8266   27.3004    1.1107 C.ar      12 UNK        -0.0824 
     13 C13        31.8394   28.1324    1.6481 C.ar      12 UNK        -0.0762 
     14 C14        31.1014   27.6919    2.7498 C.ar      12 UNK        -0.0782 
     15 C15        31.5394   29.5006    1.0412 C.3       12 UNK         0.0230 
     16 S16        31.3529   29.4656   -0.7741 S.3       12 UNK        -0.2608 
     17 C17        30.0610   28.1949   -0.9940 C.3       12 UNK        -0.0989 
     18 CA         28.8122   28.7100   -1.7611 C.3       5 UNK         0.0716 
     19 N          28.1403   27.6142   -2.4476 N.am      5 UNK        -0.4135 
     20 C          28.5295   27.0459   -3.5911 C.2       4 UNK         0.5031 
     21 O          29.4455   27.4743   -4.2960 O.2       4 UNK        -0.5229 
     22 CA         27.8229   25.7259   -3.9562 C.3       4 UNK         0.0329 
     23 CB         28.0206   25.3386   -5.4336 C.3       4 UNK        -0.2001 
     24 N          28.3187   24.6387   -3.1050 N.am      4 UNK        -0.4303 
     25 C          28.0040   24.4779   -1.8129 C.2       3 UNK         0.5044 
     26 O          27.1824   25.1821   -1.2214 O.2       3 UNK        -0.5152 
     27 CA         28.7874   23.3998   -1.0431 C.3       3 UNK         0.0319 
     28 CB         30.1543   23.9551   -0.6014 C.3       3 UNK        -0.2001 
     29 N          28.0606   22.9560    0.1468 N.am      3 UNK        -0.4354 
     30 C          26.9360   22.2260    0.1405 C.2       2 UNK         0.4964 
     31 O          26.4581   21.7114   -0.8716 O.2       2 UNK        -0.5047 
     32 CA         26.2204   22.0366    1.4928 C.3       2 UNK         0.0288 
     33 CB         26.5946   20.6812    2.1154 C.3       2 UNK        -0.2113 
     34 N          26.5062   23.1064    2.4572 N.am      2 UNK        -0.4145 
     35 C          26.0584   24.3668    2.3480 C.2       1 UNK         0.5006 
     36 O          25.2919   24.7416    1.4565 O.2       1 UNK        -0.5103 
     37 C          27.8006   29.4115   -0.8344 C.2       5 UNK         0.5055 
     38 O          26.6440   28.9897   -0.7365 O.2       5 UNK        -0.5220 
     39 N          28.2648   30.4761   -0.1722 N.am      6 UNK        -0.4450 
     40 CA         27.5430   31.2254    0.8565 C.3       6 UNK         0.0367 
     41 CB         28.2921   32.5496    1.0964 C.3       6 UNK        -0.1929 
     42 C          27.4060   30.4373    2.1744 C.2       6 UNK         0.5070 
     43 O          28.0115   29.3777    2.3410 O.2       6 UNK        -0.5237 
     44 N          26.6359   31.0017    3.1140 N.am      7 UNK        -0.4739 
     45 CA         26.5006   30.4996    4.4869 C.3       7 UNK         0.0276 
     46 CB         25.2549   31.1316    5.1300 C.3       7 UNK        -0.1927 
     47 C          27.7435   30.7577    5.3607 C.2       7 UNK         0.5013 
     48 O          27.8980   30.1026    6.3919 O.2       7 UNK        -0.5193 
     49 N          28.5940   31.7103    4.9521 N.am      8 UNK        -0.4253 
     50 CA         29.8806   32.0050    5.5790 C.3       8 UNK         0.0242 
     51 CB         30.3875   33.3705    5.0852 C.3       8 UNK        -0.2000 
     52 C          30.8845   30.8929    5.2452 C.2       8 UNK         0.4948 
     53 O          31.1892   30.6916    4.0681 O.2       8 UNK        -0.5275 
     54 N          31.3671   30.1878    6.2749 N.am      9 UNK        -0.4246 
     55 CA         32.2833   29.0539    6.1572 C.3       9 UNK         0.0261 
     56 CB         32.2531   28.2409    7.4640 C.3       9 UNK        -0.1959 
     57 C          33.7056   29.4971    5.7759 C.2       9 UNK         0.5033 
     58 O          34.5651   29.6266    6.6499 O.2       9 UNK        -0.5390 
     59 N          33.9176   29.7432    4.4770 N.am      10 UNK        -0.4215 
     60 CA         35.2123   30.1068    3.8958 C.3       10 UNK         0.0240 
     61 CB         35.0174   30.5627    2.4412 C.3       10 UNK        -0.1982 
     62 C          36.2414   28.9659    3.9689 C.2       10 UNK         0.4970 
     63 O          37.4180   29.2326    4.2171 O.2       10 UNK        -0.4916 
     64 N          35.7831   27.7262    3.7541 N.am      11 UNK        -0.4279 
     65 CA         36.5948   26.5096    3.8820 C.3       11 UNK         0.1003 
     66 C          36.8422   26.1487    5.3703 C.2       11 UNK         0.5709 
     67 N          38.0565   25.7480    5.7216 N.am      11 UNK        -0.7358 
     68 O          35.9323   26.1859    6.1967 O.2       11 UNK        -0.4999 
     69 C69        35.9655   25.3134    3.1249 C.3       12 UNK        -0.0954 
     70 S70        35.7959   25.6408    1.3379 S.3       12 UNK        -0.2268 
     71 C71        34.0862   25.1079    1.0149 C.3       12 UNK         0.0203 
     72 H72        22.8315   27.8399    3.3343 H         1 UNK         0.0888 
     73 H73        23.6818   28.4894    4.7384 H         1 UNK         0.0888 
     74 H74        24.3591   28.6902    3.1164 H         1 UNK         0.0888 
     75 H75        26.1801   27.3769    2.9381 H         1 UNK         0.3017 
     76 H76        26.4880   24.8783    4.3766 H         1 UNK         0.0873 
     77 H77        28.2070   26.3194    2.2762 H         1 UNK         0.0745 
     78 H78        28.6551   24.7838    2.9757 H         1 UNK         0.0745 
     79 H79        30.5149   24.8413    4.5415 H         1 UNK         0.0705 
     80 H80        31.0524   26.2413    5.4269 H         1 UNK         0.0705 
     81 H81        32.4810   24.6213    3.1655 H         1 UNK         0.1334 
     82 H82        33.4018   27.6301    0.2562 H         1 UNK         0.1417 
     83 H83        30.3425   28.3399    3.1681 H         1 UNK         0.1562 
     84 H84        30.6281   29.9165    1.4732 H         1 UNK         0.0748 
     85 H85        32.3390   30.1927    1.3016 H         1 UNK         0.0748 
     86 H86        29.7721   27.7539   -0.0375 H         1 UNK         0.0940 
     87 H87        30.5396   27.3834   -1.5446 H         1 UNK         0.0940 
     88 H88        29.1166   29.4376   -2.5168 H         1 UNK         0.0703 
     89 H89        27.3853   27.1872   -1.9186 H         1 UNK         0.3081 
     90 H90        26.7520   25.8559   -3.7841 H         1 UNK         0.0719 
     91 H91        27.6659   26.1311   -6.0940 H         1 UNK         0.0809 
     92 H92        29.0703   25.1616   -5.6717 H         1 UNK         0.0809 
     93 H93        27.4634   24.4358   -5.6843 H         1 UNK         0.0809 
     94 H94        29.0282   24.0435   -3.5083 H         1 UNK         0.2990 
     95 H95        28.9427   22.5397   -1.6979 H         1 UNK         0.0690 
     96 H96        30.7359   23.2036   -0.0670 H         1 UNK         0.0788 
     97 H97        30.0481   24.8226    0.0526 H         1 UNK         0.0788 
     98 H98        30.7490   24.2696   -1.4601 H         1 UNK         0.0788 
     99 H99        28.3617   23.3483    1.0245 H         1 UNK         0.2993 
    100 H100       25.1463   22.0374    1.2933 H         1 UNK         0.0949 
    101 H101       27.6584   20.6229    2.3496 H         1 UNK         0.0767 
    102 H102       26.0364   20.4984    3.0340 H         1 UNK         0.0767 
    103 H103       26.3663   19.8621    1.4318 H         1 UNK         0.0767 
    104 H104       27.1099   22.8657    3.2307 H         1 UNK         0.3013 
    105 H105       29.2411   30.7074   -0.2933 H         1 UNK         0.3121 
    106 H106       26.5401   31.4441    0.4836 H         1 UNK         0.0774 
    107 H107       27.7509   33.1972    1.7869 H         1 UNK         0.0815 
    108 H108       29.2851   32.3807    1.5163 H         1 UNK         0.0815 
    109 H109       28.4130   33.1100    0.1689 H         1 UNK         0.0815 
    110 H110       26.1560   31.8648    2.8994 H         1 UNK         0.2987 
    111 H111       26.3623   29.4173    4.4488 H         1 UNK         0.0949 
    112 H112       24.3573   30.9367    4.5433 H         1 UNK         0.0806 
    113 H113       25.0834   30.7250    6.1278 H         1 UNK         0.0806 
    114 H114       25.3583   32.2125    5.2330 H         1 UNK         0.0806 
    115 H115       28.4006   32.1715    4.0769 H         1 UNK         0.3010 
    116 H116       29.7404   32.0600    6.6608 H         1 UNK         0.0829 
    117 H117       30.5315   33.3833    4.0038 H         1 UNK         0.0813 
    118 H118       31.3460   33.6179    5.5434 H         1 UNK         0.0813 
    119 H119       29.6906   34.1690    5.3406 H         1 UNK         0.0813 
    120 H120       31.0722   30.4297    7.2099 H         1 UNK         0.3038 
    121 H121       31.9193   28.4062    5.3603 H         1 UNK         0.0769 
    122 H122       31.2556   27.8485    7.6632 H         1 UNK         0.0811 
    123 H123       32.5572   28.8401    8.3231 H         1 UNK         0.0811 
    124 H124       32.9308   27.3877    7.4055 H         1 UNK         0.0811 
    125 H125       33.1121   29.7301    3.8609 H         1 UNK         0.3204 
    126 H126       35.6080   30.9493    4.4670 H         1 UNK         0.0748 
    127 H127       34.6516   29.7526    1.8093 H         1 UNK         0.0771 
    128 H128       34.3122   31.3915    2.3746 H         1 UNK         0.0771 
    129 H129       35.9603   30.9057    2.0130 H         1 UNK         0.0771 
    130 H130       34.8021   27.5892    3.5640 H         1 UNK         0.2980 
    131 H131       37.5640   26.7122    3.4210 H         1 UNK         0.0545 
    132 H132       38.2291   25.4937    6.6817 H         1 UNK         0.3459 
    133 H133       38.8062   25.7021    5.0489 H         1 UNK         0.3459 
    134 H134       34.9959   25.0582    3.5541 H         1 UNK         0.0616 
    135 H135       36.5887   24.4241    3.2347 H         1 UNK         0.0616 
    136 H136       33.9582   24.0816    1.3626 H         1 UNK         0.0634 
    137 H137       33.9258   25.0848   -0.0640 H         1 UNK         0.0634 
@<TRIPOS>BOND
     1    1    2 1    
     2    1   72 1    
     3    1   73 1    
     4    1   74 1    
     5    2    3 2    
     6    2    4 am   BACKBONE|DICT|INTERRES
     7    4    5 1    
     8    4   75 1    
     9    5    6 1    
    10    5   35 1    
    11    5   76 1    
    12    6    7 1    
    13    6   77 1    
    14    6   78 1    
    15    7    8 1    
    16    8    9 1    
    17    8   79 1    
    18    8   80 1    
    19    9   10 ar   
    20    9   14 ar   
    21   10   11 ar   
    22   10   81 1    
    23   11   12 ar   
    24   11   71 1    
    25   12   13 ar   
    26   12   82 1    
    27   13   14 ar   
    28   13   15 1    
    29   14   83 1    
    30   15   16 1    
    31   15   84 1    
    32   15   85 1    
    33   16   17 1    
    34   17   18 1    
    35   17   86 1    
    36   17   87 1    
    37   18   19 1    
    38   18   37 1    
    39   18   88 1    
    40   19   20 am   BACKBONE|DICT|INTERRES
    41   19   89 1    
    42   20   21 2    
    43   20   22 1    
    44   22   23 1    
    45   22   24 1    
    46   22   90 1    
    47   23   91 1    
    48   23   92 1    
    49   23   93 1    
    50   24   25 am   BACKBONE|DICT|INTERRES
    51   24   94 1    
    52   25   26 2    
    53   25   27 1    
    54   27   28 1    
    55   27   29 1    
    56   27   95 1    
    57   28   96 1    
    58   28   97 1    
    59   28   98 1    
    60   29   30 am   BACKBONE|DICT|INTERRES
    61   29   99 1    
    62   30   31 2    
    63   30   32 1    
    64   32   33 1    
    65   32   34 1    
    66   32  100 1    
    67   33  101 1    
    68   33  102 1    
    69   33  103 1    
    70   34   35 am   BACKBONE|DICT|INTERRES
    71   34  104 1    
    72   35   36 2    
    73   37   38 2    
    74   37   39 am   BACKBONE|DICT|INTERRES
    75   39   40 1    
    76   39  105 1    
    77   40   41 1    
    78   40   42 1    
    79   40  106 1    
    80   41  107 1    
    81   41  108 1    
    82   41  109 1    
    83   42   43 2    
    84   42   44 am   BACKBONE|DICT|INTERRES
    85   44   45 1    
    86   44  110 1    
    87   45   46 1    
    88   45   47 1    
    89   45  111 1    
    90   46  112 1    
    91   46  113 1    
    92   46  114 1    
    93   47   48 2    
    94   47   49 am   BACKBONE|DICT|INTERRES
    95   49   50 1    
    96   49  115 1    
    97   50   51 1    
    98   50   52 1    
    99   50  116 1    
   100   51  117 1    
   101   51  118 1    
   102   51  119 1    
   103   52   53 2    
   104   52   54 am   BACKBONE|DICT|INTERRES
   105   54   55 1    
   106   54  120 1    
   107   55   56 1    
   108   55   57 1    
   109   55  121 1    
   110   56  122 1    
   111   56  123 1    
   112   56  124 1    
   113   57   58 2    
   114   57   59 am   BACKBONE|DICT|INTERRES
   115   59   60 1    
   116   59  125 1    
   117   60   61 1    
   118   60   62 1    
   119   60  126 1    
   120   61  127 1    
   121   61  128 1    
   122   61  129 1    
   123   62   63 2    
   124   62   64 am   BACKBONE|DICT|INTERRES
   125   64   65 1    
   126   64  130 1    
   127   65   66 1    
   128   65   69 1    
   129   65  131 1    
   130   66   67 am   BACKBONE|DICT|INTERRES
   131   66   68 2    
   132   67  132 1    
   133   67  133 1    
   134   69   70 1    
   135   69  134 1    
   136   69  135 1    
   137   70   71 1    
   138   71  136 1    
   139   71  137 1    
@<TRIPOS>SUBSTRUCTURE
     1 UNK         1 GROUP             0       ****    0 ROOT    
