@<TRIPOS>MOLECULE
3R136
137   139    1
SMALL
USER_CHARGES


@<TRIPOS>ATOM
      1 CA         30.6215   26.4666   -4.3226 C.3       0 UNK        -0.1979 
      2 C          30.0693   26.6133   -2.9129 C.2       0 UNK         0.4864 
      3 O          29.7844   27.7299   -2.4829 O.2       0 UNK        -0.5359 
      4 N          29.9138   25.4923   -2.1941 N.am      1 UNK        -0.4318 
      5 CA         29.4583   25.4245   -0.7965 C.3       1 UNK         0.0824 
      6 C6         29.6547   24.0103   -0.1900 C.3       12 UNK        -0.0944 
      7 S7         31.3472   23.3709   -0.4316 S.3       12 UNK        -0.2672 
      8 C8         31.5646   22.2842    1.0131 C.3       12 UNK         0.0333 
      9 C9         31.7526   23.0481    2.3185 C.ar      12 UNK        -0.0807 
     10 C10        32.7631   24.0101    2.4418 C.ar      12 UNK        -0.0894 
     11 C11        32.9654   24.6745    3.6549 C.ar      12 UNK        -0.0804 
     12 C12        32.1631   24.3582    4.7518 C.ar      12 UNK        -0.0824 
     13 C13        31.1426   23.4115    4.6404 C.ar      12 UNK        -0.0762 
     14 C14        30.9420   22.7571    3.4215 C.ar      12 UNK        -0.0782 
     15 C15        30.2586   23.1065    5.8415 C.3       12 UNK         0.0230 
     16 S16        28.6271   23.9089    5.7178 S.3       12 UNK        -0.2608 
     17 C17        29.0748   25.6639    5.4752 C.3       12 UNK        -0.0989 
     18 CA         28.8728   26.0957    3.9973 C.3       5 UNK         0.0716 
     19 N          27.4769   25.9929    3.5520 N.am      5 UNK        -0.4135 
     20 C          26.4348   26.7045    4.0113 C.2       4 UNK         0.5031 
     21 O          26.5062   27.5086    4.9415 O.2       4 UNK        -0.5229 
     22 CA         25.0806   26.5126    3.3094 C.3       4 UNK         0.0329 
     23 CB         24.5742   27.8490    2.7365 C.3       4 UNK        -0.2001 
     24 N          25.1555   25.5454    2.2139 N.am      4 UNK        -0.4303 
     25 C          24.4060   24.4414    2.0882 C.2       3 UNK         0.5044 
     26 O          23.6098   24.0555    2.9455 O.2       3 UNK        -0.5152 
     27 CA         24.5757   23.6255    0.7850 C.3       3 UNK         0.0319 
     28 CB         23.2496   22.9980    0.3053 C.3       3 UNK        -0.2001 
     29 N          25.2265   24.3768   -0.2998 N.am      3 UNK        -0.4354 
     30 C          24.7989   25.5109   -0.8801 C.2       2 UNK         0.4964 
     31 O          23.6894   26.0056   -0.6782 O.2       2 UNK        -0.5047 
     32 CA         25.7920   26.2431   -1.8059 C.3       2 UNK         0.0288 
     33 CB         25.6992   27.7758   -1.6430 C.3       2 UNK        -0.2113 
     34 N          27.1921   25.8079   -1.6777 N.am      2 UNK        -0.4145 
     35 C          27.9973   25.8854   -0.6033 C.2       1 UNK         0.5006 
     36 O          27.6322   26.2685    0.5125 O.2       1 UNK        -0.5103 
     37 C          29.4429   27.4934    3.6716 C.2       5 UNK         0.5055 
     38 O          30.0453   28.1436    4.5294 O.2       5 UNK        -0.5220 
     39 N          29.1964   27.9375    2.4309 N.am      6 UNK        -0.4450 
     40 CA         29.4589   29.2932    1.9495 C.3       6 UNK         0.0367 
     41 CB         28.1350   29.8787    1.4247 C.3       6 UNK        -0.1929 
     42 C          30.5632   29.3472    0.8787 C.2       6 UNK         0.5070 
     43 O          30.6103   30.3155    0.1186 O.2       6 UNK        -0.5237 
     44 N          31.4447   28.3351    0.8296 N.am      7 UNK        -0.4739 
     45 CA         32.5099   28.2100   -0.1796 C.3       7 UNK         0.0276 
     46 CB         33.1978   26.8424   -0.0550 C.3       7 UNK        -0.1927 
     47 C          33.5523   29.3424   -0.1474 C.2       7 UNK         0.5013 
     48 O          34.1173   29.6711   -1.1911 O.2       7 UNK        -0.5193 
     49 N          33.7565   29.9361    1.0335 N.am      8 UNK        -0.4253 
     50 CA         34.5300   31.1580    1.2425 C.3       8 UNK         0.0242 
     51 CB         35.8301   30.8247    1.9976 C.3       8 UNK        -0.2000 
     52 C          33.6420   32.1734    1.9769 C.2       8 UNK         0.4948 
     53 O          34.0083   32.6539    3.0502 O.2       8 UNK        -0.5275 
     54 N          32.4518   32.4313    1.4124 N.am      9 UNK        -0.4246 
     55 CA         31.3575   33.2866    1.9010 C.3       9 UNK         0.0261 
     56 CB         31.8089   34.7454    2.1121 C.3       9 UNK        -0.1959 
     57 C          30.6400   32.7317    3.1444 C.2       9 UNK         0.5033 
     58 O          29.4099   32.6904    3.1593 O.2       9 UNK        -0.5390 
     59 N          31.4093   32.2840    4.1388 N.am      10 UNK        -0.4215 
     60 CA         30.9605   31.5731    5.3287 C.3       10 UNK         0.0240 
     61 CB         30.3582   32.5495    6.3574 C.3       10 UNK        -0.1982 
     62 C          32.1801   30.8374    5.8871 C.2       10 UNK         0.4970 
     63 O          33.1206   31.4964    6.3350 O.2       10 UNK        -0.4916 
     64 N          32.1609   29.5041    5.8239 N.am      11 UNK        -0.4279 
     65 CA         33.2681   28.6308    6.2431 C.3       11 UNK         0.1003 
     66 C          32.8200   27.4106    7.0950 C.2       11 UNK         0.5709 
     67 N          31.5677   27.3298    7.5291 N.am      11 UNK        -0.7358 
     68 O          33.6276   26.5365    7.3998 O.2       11 UNK        -0.4999 
     69 C69        34.1986   28.2695    5.0527 C.3       12 UNK        -0.0954 
     70 S70        33.3509   27.4043    3.6852 S.3       12 UNK        -0.2268 
     71 C71        34.0515   25.7273    3.8015 C.3       12 UNK         0.0203 
     72 H72        31.5491   27.0299   -4.4208 H         1 UNK         0.0888 
     73 H73        30.8285   25.4265   -4.5740 H         1 UNK         0.0888 
     74 H74        29.9075   26.8560   -5.0478 H         1 UNK         0.0888 
     75 H75        30.1926   24.6073   -2.5949 H         1 UNK         0.3017 
     76 H76        30.0744   26.1216   -0.2276 H         1 UNK         0.0873 
     77 H77        28.9622   23.2943   -0.6369 H         1 UNK         0.0745 
     78 H78        29.4336   24.0269    0.8792 H         1 UNK         0.0745 
     79 H79        30.7147   21.6024    1.0731 H         1 UNK         0.0705 
     80 H80        32.4450   21.6617    0.8486 H         1 UNK         0.0705 
     81 H81        33.3939   24.2360    1.5931 H         1 UNK         0.1334 
     82 H82        32.3264   24.8644    5.6927 H         1 UNK         0.1417 
     83 H83        30.1573   22.0173    3.3384 H         1 UNK         0.1562 
     84 H84        30.7424   23.4248    6.7665 H         1 UNK         0.0748 
     85 H85        30.1180   22.0281    5.9278 H         1 UNK         0.0748 
     86 H86        30.1063   25.8188    5.7868 H         1 UNK         0.0940 
     87 H87        28.4747   26.2767    6.1490 H         1 UNK         0.0940 
     88 H88        29.4423   25.4062    3.3722 H         1 UNK         0.0703 
     89 H89        27.3109   25.3633    2.7814 H         1 UNK         0.3081 
     90 H90        24.3770   26.1737    4.0723 H         1 UNK         0.0719 
     91 H91        24.4642   28.5993    3.5207 H         1 UNK         0.0809 
     92 H92        25.2606   28.2522    1.9907 H         1 UNK         0.0809 
     93 H93        23.5993   27.7315    2.2628 H         1 UNK         0.0809 
     94 H94        25.7832   25.7855    1.4545 H         1 UNK         0.2990 
     95 H95        25.2541   22.8080    1.0334 H         1 UNK         0.0690 
     96 H96        23.3903   22.4247   -0.6110 H         1 UNK         0.0788 
     97 H97        22.4877   23.7543    0.1148 H         1 UNK         0.0788 
     98 H98        22.8462   22.3147    1.0536 H         1 UNK         0.0788 
     99 H99        26.1465   24.0503   -0.5581 H         1 UNK         0.2993 
    100 H100       25.4871   25.9978   -2.8244 H         1 UNK         0.0949 
    101 H101       25.8999   28.0854   -0.6169 H         1 UNK         0.0767 
    102 H102       26.4102   28.2878   -2.2918 H         1 UNK         0.0767 
    103 H103       24.7048   28.1407   -1.9031 H         1 UNK         0.0767 
    104 H104       27.6077   25.4519   -2.5275 H         1 UNK         0.3013 
    105 H105       28.6775   27.3373    1.7956 H         1 UNK         0.3121 
    106 H106       29.7978   29.9214    2.7736 H         1 UNK         0.0774 
    107 H107       27.7699   29.3300    0.5557 H         1 UNK         0.0815 
    108 H108       27.3603   29.8524    2.1912 H         1 UNK         0.0815 
    109 H109       28.2549   30.9218    1.1290 H         1 UNK         0.0815 
    110 H110       31.3766   27.6020    1.5210 H         1 UNK         0.2987 
    111 H111       32.0300   28.2572   -1.1586 H         1 UNK         0.0949 
    112 H112       33.7460   26.7452    0.8809 H         1 UNK         0.0806 
    113 H113       32.4794   26.0277   -0.1114 H         1 UNK         0.0806 
    114 H114       33.9142   26.6945   -0.8640 H         1 UNK         0.0806 
    115 H115       33.2467   29.5840    1.8324 H         1 UNK         0.3010 
    116 H116       34.7989   31.6127    0.2865 H         1 UNK         0.0829 
    117 H117       35.6310   30.4052    2.9827 H         1 UNK         0.0813 
    118 H118       36.4377   31.7192    2.1408 H         1 UNK         0.0813 
    119 H119       36.4352   30.1066    1.4442 H         1 UNK         0.0813 
    120 H120       32.2173   31.9060    0.5777 H         1 UNK         0.3038 
    121 H121       30.6191   33.2904    1.0972 H         1 UNK         0.0769 
    122 H122       32.2619   35.1545    1.2091 H         1 UNK         0.0811 
    123 H123       32.5315   34.8405    2.9229 H         1 UNK         0.0811 
    124 H124       30.9583   35.3799    2.3642 H         1 UNK         0.0811 
    125 H125       32.4196   32.3757    4.0321 H         1 UNK         0.3204 
    126 H126       30.1978   30.8450    5.0450 H         1 UNK         0.0748 
    127 H127       31.0672   33.3297    6.6373 H         1 UNK         0.0771 
    128 H128       29.4637   33.0359    5.9681 H         1 UNK         0.0771 
    129 H129       30.0702   32.0248    7.2691 H         1 UNK         0.0771 
    130 H130       31.3673   29.0247    5.3980 H         1 UNK         0.2980 
    131 H131       33.8847   29.1904    6.9484 H         1 UNK         0.0545 
    132 H132       31.2983   26.5507    8.1074 H         1 UNK         0.3459 
    133 H133       30.8988   28.0486    7.3057 H         1 UNK         0.3459 
    134 H134       35.0606   27.6946    5.3938 H         1 UNK         0.0616 
    135 H135       34.6163   29.1889    4.6441 H         1 UNK         0.0616 
    136 H136       34.5527   25.5842    4.7596 H         1 UNK         0.0634 
    137 H137       34.8166   25.6060    3.0335 H         1 UNK         0.0634 
@<TRIPOS>BOND
     1    1    2 1    
     2    1   72 1    
     3    1   73 1    
     4    1   74 1    
     5    2    3 2    
     6    2    4 am   BACKBONE|DICT|INTERRES
     7    4    5 1    
     8    4   75 1    
     9    5    6 1    
    10    5   35 1    
    11    5   76 1    
    12    6    7 1    
    13    6   77 1    
    14    6   78 1    
    15    7    8 1    
    16    8    9 1    
    17    8   79 1    
    18    8   80 1    
    19    9   10 ar   
    20    9   14 ar   
    21   10   11 ar   
    22   10   81 1    
    23   11   12 ar   
    24   11   71 1    
    25   12   13 ar   
    26   12   82 1    
    27   13   14 ar   
    28   13   15 1    
    29   14   83 1    
    30   15   16 1    
    31   15   84 1    
    32   15   85 1    
    33   16   17 1    
    34   17   18 1    
    35   17   86 1    
    36   17   87 1    
    37   18   19 1    
    38   18   37 1    
    39   18   88 1    
    40   19   20 am   BACKBONE|DICT|INTERRES
    41   19   89 1    
    42   20   21 2    
    43   20   22 1    
    44   22   23 1    
    45   22   24 1    
    46   22   90 1    
    47   23   91 1    
    48   23   92 1    
    49   23   93 1    
    50   24   25 am   BACKBONE|DICT|INTERRES
    51   24   94 1    
    52   25   26 2    
    53   25   27 1    
    54   27   28 1    
    55   27   29 1    
    56   27   95 1    
    57   28   96 1    
    58   28   97 1    
    59   28   98 1    
    60   29   30 am   BACKBONE|DICT|INTERRES
    61   29   99 1    
    62   30   31 2    
    63   30   32 1    
    64   32   33 1    
    65   32   34 1    
    66   32  100 1    
    67   33  101 1    
    68   33  102 1    
    69   33  103 1    
    70   34   35 am   BACKBONE|DICT|INTERRES
    71   34  104 1    
    72   35   36 2    
    73   37   38 2    
    74   37   39 am   BACKBONE|DICT|INTERRES
    75   39   40 1    
    76   39  105 1    
    77   40   41 1    
    78   40   42 1    
    79   40  106 1    
    80   41  107 1    
    81   41  108 1    
    82   41  109 1    
    83   42   43 2    
    84   42   44 am   BACKBONE|DICT|INTERRES
    85   44   45 1    
    86   44  110 1    
    87   45   46 1    
    88   45   47 1    
    89   45  111 1    
    90   46  112 1    
    91   46  113 1    
    92   46  114 1    
    93   47   48 2    
    94   47   49 am   BACKBONE|DICT|INTERRES
    95   49   50 1    
    96   49  115 1    
    97   50   51 1    
    98   50   52 1    
    99   50  116 1    
   100   51  117 1    
   101   51  118 1    
   102   51  119 1    
   103   52   53 2    
   104   52   54 am   BACKBONE|DICT|INTERRES
   105   54   55 1    
   106   54  120 1    
   107   55   56 1    
   108   55   57 1    
   109   55  121 1    
   110   56  122 1    
   111   56  123 1    
   112   56  124 1    
   113   57   58 2    
   114   57   59 am   BACKBONE|DICT|INTERRES
   115   59   60 1    
   116   59  125 1    
   117   60   61 1    
   118   60   62 1    
   119   60  126 1    
   120   61  127 1    
   121   61  128 1    
   122   61  129 1    
   123   62   63 2    
   124   62   64 am   BACKBONE|DICT|INTERRES
   125   64   65 1    
   126   64  130 1    
   127   65   66 1    
   128   65   69 1    
   129   65  131 1    
   130   66   67 am   BACKBONE|DICT|INTERRES
   131   66   68 2    
   132   67  132 1    
   133   67  133 1    
   134   69   70 1    
   135   69  134 1    
   136   69  135 1    
   137   70   71 1    
   138   71  136 1    
   139   71  137 1    
@<TRIPOS>SUBSTRUCTURE
     1 UNK         1 GROUP             0       ****    0 ROOT    
