@<TRIPOS>MOLECULE
3R136
137   139    1
SMALL
USER_CHARGES


@<TRIPOS>ATOM
      1 CA         32.8024   23.0717    1.1621 C.3       0 UNK        -0.1979 
      2 C          31.3635   23.4161    0.8101 C.2       0 UNK         0.4864 
      3 O          31.0601   23.6588   -0.3586 O.2       0 UNK        -0.5359 
      4 N          30.4693   23.4349    1.8089 N.am      1 UNK        -0.4318 
      5 CA         29.0418   23.7569    1.6843 C.3       1 UNK         0.0824 
      6 C6         28.4684   24.2400    3.0443 C.3       12 UNK        -0.0944 
      7 S7         26.9186   25.1906    2.8801 S.3       12 UNK        -0.2672 
      8 C8         26.7243   25.8453    4.5675 C.3       12 UNK         0.0333 
      9 C9         27.3488   27.2259    4.6929 C.ar      12 UNK        -0.0807 
     10 C10        28.6687   27.3758    5.1266 C.ar      12 UNK        -0.0894 
     11 C11        29.2524   28.6482    5.2190 C.ar      12 UNK        -0.0804 
     12 C12        28.4940   29.7653    4.8491 C.ar      12 UNK        -0.0824 
     13 C13        27.1711   29.6323    4.4143 C.ar      12 UNK        -0.0762 
     14 C14        26.5985   28.3570    4.3666 C.ar      12 UNK        -0.0782 
     15 C15        26.3735   30.8762    4.0225 C.3       12 UNK         0.0230 
     16 S16        25.2362   30.6262    2.6125 S.3       12 UNK        -0.2608 
     17 C17        26.3837   30.4839    1.1971 C.3       12 UNK        -0.0989 
     18 CA         26.8929   29.0367    0.9430 C.3       5 UNK         0.0716 
     19 N          25.8409   28.0173    0.9022 N.am      5 UNK        -0.4135 
     20 C          24.8627   27.9071   -0.0038 C.2       4 UNK         0.5031 
     21 O          24.6950   28.6725   -0.9555 O.2       4 UNK        -0.5229 
     22 CA         23.9249   26.7006    0.1830 C.3       4 UNK         0.0329 
     23 CB         22.4487   27.1257    0.0992 C.3       4 UNK        -0.2001 
     24 N          24.1743   25.6250   -0.7819 N.am      4 UNK        -0.4303 
     25 C          25.3529   25.0298   -1.0085 C.2       3 UNK         0.5044 
     26 O          26.4164   25.3577   -0.4699 O.2       3 UNK        -0.5152 
     27 CA         25.3446   23.8615   -2.0029 C.3       3 UNK         0.0319 
     28 CB         25.3577   24.3615   -3.4569 C.3       3 UNK        -0.2001 
     29 N          26.5481   23.0850   -1.7430 N.am      3 UNK        -0.4354 
     30 C          26.6359   21.7590   -1.6079 C.2       2 UNK         0.4964 
     31 O          25.7314   20.9725   -1.8904 O.2       2 UNK        -0.5047 
     32 CA         27.9602   21.2257   -1.0308 C.3       2 UNK         0.0288 
     33 CB         28.9081   20.7941   -2.1612 C.3       2 UNK        -0.2113 
     34 N          28.6398   22.2148   -0.1862 N.am      2 UNK        -0.4145 
     35 C          28.2512   22.5884    1.0417 C.2       1 UNK         0.5006 
     36 O          27.3331   22.0377    1.6528 O.2       1 UNK        -0.5103 
     37 C          27.8653   28.9330   -0.2521 C.2       5 UNK         0.5055 
     38 O          28.3588   29.9543   -0.7360 O.2       5 UNK        -0.5220 
     39 N          28.1627   27.6968   -0.6867 N.am      6 UNK        -0.4450 
     40 CA         29.2950   27.3956   -1.5704 C.3       6 UNK         0.0367 
     41 CB         29.1566   25.9713   -2.1288 C.3       6 UNK        -0.1929 
     42 C          30.6494   27.5792   -0.8559 C.2       6 UNK         0.5070 
     43 O          31.6366   27.9214   -1.5077 O.2       6 UNK        -0.5237 
     44 N          30.6586   27.3894    0.4704 N.am      7 UNK        -0.4739 
     45 CA         31.7324   27.8093    1.3681 C.3       7 UNK         0.0276 
     46 CB         31.8012   26.8319    2.5502 C.3       7 UNK        -0.1927 
     47 C          31.4442   29.2338    1.8679 C.2       7 UNK         0.5013 
     48 O          30.2780   29.6189    1.9743 O.2       7 UNK        -0.5193 
     49 N          32.5013   29.9837    2.1912 N.am      8 UNK        -0.4253 
     50 CA         32.4329   31.3639    2.6669 C.3       8 UNK         0.0242 
     51 CB         32.2406   32.3172    1.4698 C.3       8 UNK        -0.2000 
     52 C          33.7117   31.6940    3.4458 C.2       8 UNK         0.4948 
     53 O          34.6445   30.8836    3.4606 O.2       8 UNK        -0.5275 
     54 N          33.7325   32.8825    4.0676 N.am      9 UNK        -0.4246 
     55 CA         34.8350   33.4556    4.8496 C.3       9 UNK         0.0261 
     56 CB         36.0190   33.8313    3.9278 C.3       9 UNK        -0.1959 
     57 C          35.2206   32.5461    6.0305 C.2       9 UNK         0.5033 
     58 O          34.4669   32.4777    7.0026 O.2       9 UNK        -0.5390 
     59 N          36.3582   31.8477    5.9167 N.am      10 UNK        -0.4215 
     60 CA         36.8315   30.8461    6.8757 C.3       10 UNK         0.0240 
     61 CB         38.3007   30.5125    6.5669 C.3       10 UNK        -0.1982 
     62 C          35.9811   29.5605    6.9024 C.2       10 UNK         0.4970 
     63 O          36.0641   28.8190    7.8822 O.2       10 UNK        -0.4916 
     64 N          35.1924   29.3160    5.8447 N.am      11 UNK        -0.4279 
     65 CA         34.2991   28.1586    5.6818 C.3       11 UNK         0.1003 
     66 C          35.0362   26.7992    5.4635 C.2       11 UNK         0.5709 
     67 N          36.3050   26.7987    5.0709 N.am      11 UNK        -0.7358 
     68 O          34.4545   25.7290    5.6203 O.2       11 UNK        -0.4999 
     69 C69        33.1876   28.1193    6.7732 C.3       12 UNK        -0.0954 
     70 S70        31.6220   27.3904    6.1872 S.3       12 UNK        -0.2268 
     71 C71        30.6852   28.8835    5.7099 C.3       12 UNK         0.0203 
     72 H72        33.1071   22.1621    0.6453 H         1 UNK         0.0888 
     73 H73        33.4657   23.8788    0.8522 H         1 UNK         0.0888 
     74 H74        32.9351   22.9166    2.2327 H         1 UNK         0.0888 
     75 H75        30.7740   23.1850    2.7391 H         1 UNK         0.3017 
     76 H76        28.9629   24.5975    0.9918 H         1 UNK         0.0873 
     77 H77        28.3116   23.4041    3.7287 H         1 UNK         0.0745 
     78 H78        29.1925   24.8945    3.5311 H         1 UNK         0.0745 
     79 H79        25.6600   25.8995    4.8015 H         1 UNK         0.0705 
     80 H80        27.1581   25.1557    5.2933 H         1 UNK         0.0705 
     81 H81        29.2283   26.4904    5.3889 H         1 UNK         0.1334 
     82 H82        28.9407   30.7489    4.9011 H         1 UNK         0.1417 
     83 H83        25.5723   28.2387    4.0474 H         1 UNK         0.1562 
     84 H84        27.0437   31.7049    3.7882 H         1 UNK         0.0748 
     85 H85        25.7868   31.1904    4.8865 H         1 UNK         0.0748 
     86 H86        27.2268   31.1577    1.3629 H         1 UNK         0.0940 
     87 H87        25.8687   30.8604    0.3115 H         1 UNK         0.0940 
     88 H88        27.5135   28.7679    1.7973 H         1 UNK         0.0703 
     89 H89        25.9201   27.2917    1.6017 H         1 UNK         0.3081 
     90 H90        24.0918   26.2836    1.1787 H         1 UNK         0.0719 
     91 H91        22.1892   27.4920   -0.8951 H         1 UNK         0.0809 
     92 H92        21.7810   26.2976    0.3376 H         1 UNK         0.0809 
     93 H93        22.2339   27.9275    0.8072 H         1 UNK         0.0809 
     94 H94        23.3700   25.2998   -1.2982 H         1 UNK         0.2990 
     95 H95        24.4545   23.2543   -1.8246 H         1 UNK         0.0690 
     96 H96        25.3944   23.5284   -4.1590 H         1 UNK         0.0788 
     97 H97        26.2148   25.0046   -3.6578 H         1 UNK         0.0788 
     98 H98        24.4586   24.9360   -3.6827 H         1 UNK         0.0788 
     99 H99        27.3179   23.6469   -1.4047 H         1 UNK         0.2993 
    100 H100       27.7266   20.3512   -0.4196 H         1 UNK         0.0949 
    101 H101       28.4398   20.0417   -2.7975 H         1 UNK         0.0767 
    102 H102       29.1858   21.6349   -2.7984 H         1 UNK         0.0767 
    103 H103       29.8248   20.3573   -1.7642 H         1 UNK         0.0767 
    104 H104       29.4584   22.6799   -0.5736 H         1 UNK         0.3013 
    105 H105       27.6285   26.9048   -0.3382 H         1 UNK         0.3121 
    106 H106       29.2696   28.0923   -2.4111 H         1 UNK         0.0774 
    107 H107       30.0018   25.7182   -2.7702 H         1 UNK         0.0815 
    108 H108       29.1190   25.2286   -1.3335 H         1 UNK         0.0815 
    109 H109       28.2525   25.8695   -2.7275 H         1 UNK         0.0815 
    110 H110       29.7777   27.1811    0.9155 H         1 UNK         0.2987 
    111 H111       32.6886   27.7991    0.8400 H         1 UNK         0.0949 
    112 H112       30.8638   26.8015    3.1068 H         1 UNK         0.0806 
    113 H113       32.0299   25.8228    2.2165 H         1 UNK         0.0806 
    114 H114       32.5867   27.1157    3.2481 H         1 UNK         0.0806 
    115 H115       33.4397   29.6043    2.1548 H         1 UNK         0.3010 
    116 H116       31.5895   31.4641    3.3539 H         1 UNK         0.0829 
    117 H117       31.3267   32.0872    0.9214 H         1 UNK         0.0813 
    118 H118       32.1635   33.3560    1.7923 H         1 UNK         0.0813 
    119 H119       33.0741   32.2530    0.7691 H         1 UNK         0.0813 
    120 H120       32.9002   33.4542    4.0216 H         1 UNK         0.3038 
    121 H121       34.4586   34.3804    5.2897 H         1 UNK         0.0769 
    122 H122       36.4145   32.9750    3.3805 H         1 UNK         0.0811 
    123 H123       36.8387   34.2712    4.4978 H         1 UNK         0.0811 
    124 H124       35.7135   34.5732    3.1897 H         1 UNK         0.0811 
    125 H125       36.8935   31.9537    5.0667 H         1 UNK         0.3204 
    126 H126       36.7829   31.2861    7.8741 H         1 UNK         0.0748 
    127 H127       38.9305   31.4004    6.6271 H         1 UNK         0.0771 
    128 H128       38.6962   29.7894    7.2819 H         1 UNK         0.0771 
    129 H129       38.4180   30.0834    5.5710 H         1 UNK         0.0771 
    130 H130       35.1934   29.9697    5.0664 H         1 UNK         0.2980 
    131 H131       33.8091   28.3597    4.7303 H         1 UNK         0.0545 
    132 H132       36.7741   25.9192    4.9230 H         1 UNK         0.3459 
    133 H133       36.7962   27.6653    4.9239 H         1 UNK         0.3459 
    134 H134       33.5261   27.5650    7.6502 H         1 UNK         0.0616 
    135 H135       32.9715   29.1271    7.1318 H         1 UNK         0.0616 
    136 H136       30.6477   29.5545    6.5692 H         1 UNK         0.0634 
    137 H137       31.2442   29.4030    4.9311 H         1 UNK         0.0634 
@<TRIPOS>BOND
     1    1    2 1    
     2    1   72 1    
     3    1   73 1    
     4    1   74 1    
     5    2    3 2    
     6    2    4 am   BACKBONE|DICT|INTERRES
     7    4    5 1    
     8    4   75 1    
     9    5    6 1    
    10    5   35 1    
    11    5   76 1    
    12    6    7 1    
    13    6   77 1    
    14    6   78 1    
    15    7    8 1    
    16    8    9 1    
    17    8   79 1    
    18    8   80 1    
    19    9   10 ar   
    20    9   14 ar   
    21   10   11 ar   
    22   10   81 1    
    23   11   12 ar   
    24   11   71 1    
    25   12   13 ar   
    26   12   82 1    
    27   13   14 ar   
    28   13   15 1    
    29   14   83 1    
    30   15   16 1    
    31   15   84 1    
    32   15   85 1    
    33   16   17 1    
    34   17   18 1    
    35   17   86 1    
    36   17   87 1    
    37   18   19 1    
    38   18   37 1    
    39   18   88 1    
    40   19   20 am   BACKBONE|DICT|INTERRES
    41   19   89 1    
    42   20   21 2    
    43   20   22 1    
    44   22   23 1    
    45   22   24 1    
    46   22   90 1    
    47   23   91 1    
    48   23   92 1    
    49   23   93 1    
    50   24   25 am   BACKBONE|DICT|INTERRES
    51   24   94 1    
    52   25   26 2    
    53   25   27 1    
    54   27   28 1    
    55   27   29 1    
    56   27   95 1    
    57   28   96 1    
    58   28   97 1    
    59   28   98 1    
    60   29   30 am   BACKBONE|DICT|INTERRES
    61   29   99 1    
    62   30   31 2    
    63   30   32 1    
    64   32   33 1    
    65   32   34 1    
    66   32  100 1    
    67   33  101 1    
    68   33  102 1    
    69   33  103 1    
    70   34   35 am   BACKBONE|DICT|INTERRES
    71   34  104 1    
    72   35   36 2    
    73   37   38 2    
    74   37   39 am   BACKBONE|DICT|INTERRES
    75   39   40 1    
    76   39  105 1    
    77   40   41 1    
    78   40   42 1    
    79   40  106 1    
    80   41  107 1    
    81   41  108 1    
    82   41  109 1    
    83   42   43 2    
    84   42   44 am   BACKBONE|DICT|INTERRES
    85   44   45 1    
    86   44  110 1    
    87   45   46 1    
    88   45   47 1    
    89   45  111 1    
    90   46  112 1    
    91   46  113 1    
    92   46  114 1    
    93   47   48 2    
    94   47   49 am   BACKBONE|DICT|INTERRES
    95   49   50 1    
    96   49  115 1    
    97   50   51 1    
    98   50   52 1    
    99   50  116 1    
   100   51  117 1    
   101   51  118 1    
   102   51  119 1    
   103   52   53 2    
   104   52   54 am   BACKBONE|DICT|INTERRES
   105   54   55 1    
   106   54  120 1    
   107   55   56 1    
   108   55   57 1    
   109   55  121 1    
   110   56  122 1    
   111   56  123 1    
   112   56  124 1    
   113   57   58 2    
   114   57   59 am   BACKBONE|DICT|INTERRES
   115   59   60 1    
   116   59  125 1    
   117   60   61 1    
   118   60   62 1    
   119   60  126 1    
   120   61  127 1    
   121   61  128 1    
   122   61  129 1    
   123   62   63 2    
   124   62   64 am   BACKBONE|DICT|INTERRES
   125   64   65 1    
   126   64  130 1    
   127   65   66 1    
   128   65   69 1    
   129   65  131 1    
   130   66   67 am   BACKBONE|DICT|INTERRES
   131   66   68 2    
   132   67  132 1    
   133   67  133 1    
   134   69   70 1    
   135   69  134 1    
   136   69  135 1    
   137   70   71 1    
   138   71  136 1    
   139   71  137 1    
@<TRIPOS>SUBSTRUCTURE
     1 UNK         1 GROUP             0       ****    0 ROOT    
