@<TRIPOS>MOLECULE
3R136
137   139    1
SMALL
USER_CHARGES


@<TRIPOS>ATOM
      1 CA         28.2348   21.1401   -2.5958 C.3       0 UNK        -0.1979 
      2 C          28.3312   21.4304   -1.1054 C.2       0 UNK         0.4864 
      3 O          27.7731   20.6802   -0.3028 O.2       0 UNK        -0.5359 
      4 N          29.0271   22.5164   -0.7364 N.am      1 UNK        -0.4318 
      5 CA         29.2769   23.0150    0.6270 C.3       1 UNK         0.0824 
      6 C6         30.0335   22.0176    1.5462 C.3       12 UNK        -0.0944 
      7 S7         31.6954   21.6372    0.8905 S.3       12 UNK        -0.2672 
      8 C8         32.7884   22.5354    2.0425 C.3       12 UNK         0.0333 
      9 C9         32.4378   24.0141    2.1498 C.ar      12 UNK        -0.0807 
     10 C10        31.9310   24.5282    3.3468 C.ar      12 UNK        -0.0894 
     11 C11        31.5836   25.8773    3.4501 C.ar      12 UNK        -0.0804 
     12 C12        31.7464   26.7142    2.3427 C.ar      12 UNK        -0.0824 
     13 C13        32.2560   26.2157    1.1382 C.ar      12 UNK        -0.0762 
     14 C14        32.6101   24.8652    1.0538 C.ar      12 UNK        -0.0782 
     15 C15        32.4262   27.1203   -0.0795 C.3       12 UNK         0.0230 
     16 S16        31.0071   28.2289   -0.3770 S.3       12 UNK        -0.2608 
     17 C17        29.6399   27.0306   -0.4988 C.3       12 UNK        -0.0989 
     18 CA         28.2589   27.7205   -0.6246 C.3       5 UNK         0.0716 
     19 N          27.2839   26.8533   -1.2721 N.am      5 UNK        -0.4135 
     20 C          27.0976   26.7047   -2.5866 C.2       4 UNK         0.5031 
     21 O          27.7908   27.2587   -3.4407 O.2       4 UNK        -0.5229 
     22 CA         25.9560   25.7716   -3.0370 C.3       4 UNK         0.0329 
     23 CB         26.5303   24.4898   -3.6627 C.3       4 UNK        -0.2001 
     24 N          25.0461   25.3916   -1.9533 N.am      4 UNK        -0.4303 
     25 C          24.1301   26.1771   -1.3757 C.2       3 UNK         0.5044 
     26 O          23.8958   27.3291   -1.7411 O.2       3 UNK        -0.5152 
     27 CA         23.3604   25.5951   -0.1724 C.3       3 UNK         0.0319 
     28 CB         22.1550   24.7574   -0.6421 C.3       3 UNK        -0.2001 
     29 N          24.1844   24.8540    0.8008 N.am      3 UNK        -0.4354 
     30 C          24.8583   23.7069    0.6315 C.2       2 UNK         0.4964 
     31 O          24.8969   23.0776   -0.4287 O.2       2 UNK        -0.5047 
     32 CA         25.6264   23.1679    1.8457 C.3       2 UNK         0.0288 
     33 CB         24.8936   21.9652    2.4614 C.3       2 UNK        -0.2113 
     34 N          26.9606   22.7521    1.4198 N.am      2 UNK        -0.4145 
     35 C          28.0074   23.5754    1.2994 C.2       1 UNK         0.5006 
     36 O          27.9897   24.7496    1.6673 O.2       1 UNK        -0.5103 
     37 C          27.6559   28.1674    0.7234 C.2       5 UNK         0.5055 
     38 O          26.5509   27.7365    1.0727 O.2       5 UNK        -0.5220 
     39 N          28.3619   29.0474    1.4409 N.am      6 UNK        -0.4450 
     40 CA         27.9150   29.6626    2.6877 C.3       6 UNK         0.0367 
     41 CB         26.9710   30.8407    2.3709 C.3       6 UNK        -0.1929 
     42 C          29.1238   30.1289    3.5080 C.2       6 UNK         0.5070 
     43 O          30.2518   30.1270    3.0073 O.2       6 UNK        -0.5237 
     44 N          28.8462   30.5707    4.7440 N.am      7 UNK        -0.4739 
     45 CA         29.8069   31.0571    5.7455 C.3       7 UNK         0.0276 
     46 CB         29.0462   31.4496    7.0218 C.3       7 UNK        -0.1927 
     47 C          30.7134   32.2150    5.2894 C.2       7 UNK         0.5013 
     48 O          31.7947   32.3863    5.8537 O.2       7 UNK        -0.5193 
     49 N          30.2947   32.9511    4.2491 N.am      8 UNK        -0.4253 
     50 CA         31.0682   33.9877    3.5557 C.3       8 UNK         0.0242 
     51 CB         30.2015   34.5952    2.4407 C.3       8 UNK        -0.2000 
     52 C          32.4162   33.5010    2.9837 C.2       8 UNK         0.4948 
     53 O          33.3095   34.3231    2.7788 O.2       8 UNK        -0.5275 
     54 N          32.5601   32.1832    2.7753 N.am      9 UNK        -0.4246 
     55 CA         33.8168   31.5183    2.4221 C.3       9 UNK         0.0261 
     56 CB         33.4927   30.1031    1.9200 C.3       9 UNK        -0.1959 
     57 C          34.8435   31.4481    3.5734 C.2       9 UNK         0.5033 
     58 O          35.9746   31.0301    3.3221 O.2       9 UNK        -0.5390 
     59 N          34.4433   31.8193    4.8021 N.am      10 UNK        -0.4215 
     60 CA         35.2084   31.7370    6.0549 C.3       10 UNK         0.0240 
     61 CB         36.4806   32.6111    6.0078 C.3       10 UNK        -0.1982 
     62 C          35.4802   30.2837    6.4925 C.2       10 UNK         0.4970 
     63 O          36.5080   30.0023    7.1112 O.2       10 UNK        -0.4916 
     64 N          34.5365   29.3917    6.1711 N.am      11 UNK        -0.4279 
     65 CA         34.5302   27.9655    6.5253 C.3       11 UNK         0.1003 
     66 C          34.2065   27.6564    8.0171 C.2       11 UNK         0.5709 
     67 N          33.7690   28.6197    8.8202 N.am      11 UNK        -0.7358 
     68 O          34.3719   26.5213    8.4578 O.2       11 UNK        -0.4999 
     69 C69        33.6295   27.1602    5.5504 C.3       12 UNK        -0.0954 
     70 S70        31.9435   27.8460    5.3931 S.3       12 UNK        -0.2268 
     71 C71        31.0118   26.4201    4.7532 C.3       12 UNK         0.0203 
     72 H72        27.1948   21.1845   -2.9183 H         1 UNK         0.0888 
     73 H73        28.8063   21.8528   -3.1901 H         1 UNK         0.0888 
     74 H74        28.6154   20.1414   -2.8078 H         1 UNK         0.0888 
     75 H75        29.4507   23.0761   -1.4627 H         1 UNK         0.3017 
     76 H76        29.9313   23.8773    0.4930 H         1 UNK         0.0873 
     77 H77        29.4818   21.0828    1.6525 H         1 UNK         0.0745 
     78 H78        30.1295   22.4173    2.5570 H         1 UNK         0.0745 
     79 H79        33.8199   22.4350    1.7021 H         1 UNK         0.0705 
     80 H80        32.7414   22.0529    3.0200 H         1 UNK         0.0705 
     81 H81        31.7972   23.8740    4.1975 H         1 UNK         0.1334 
     82 H82        31.4657   27.7555    2.4206 H         1 UNK         0.1417 
     83 H83        33.0027   24.4651    0.1286 H         1 UNK         0.1562 
     84 H84        32.5875   26.5251   -0.9797 H         1 UNK         0.0748 
     85 H85        33.3241   27.7241    0.0549 H         1 UNK         0.0748 
     86 H86        29.6550   26.3513    0.3540 H         1 UNK         0.0940 
     87 H87        29.8384   26.4142   -1.3771 H         1 UNK         0.0940 
     88 H88        28.3573   28.6201   -1.2365 H         1 UNK         0.0703 
     89 H89        26.6257   26.4360   -0.6263 H         1 UNK         0.3081 
     90 H90        25.3808   26.3023   -3.7985 H         1 UNK         0.0719 
     91 H91        27.1898   24.7220   -4.5002 H         1 UNK         0.0809 
     92 H92        27.1097   23.9172   -2.9384 H         1 UNK         0.0809 
     93 H93        25.7387   23.8446   -4.0447 H         1 UNK         0.0809 
     94 H94        25.1360   24.4481   -1.5800 H         1 UNK         0.2990 
     95 H95        22.9644   26.4499    0.3784 H         1 UNK         0.0690 
     96 H96        21.5589   24.4127    0.2028 H         1 UNK         0.0788 
     97 H97        22.4619   23.8818   -1.2150 H         1 UNK         0.0788 
     98 H98        21.4980   25.3475   -1.2825 H         1 UNK         0.0788 
     99 H99        24.2604   25.3037    1.7035 H         1 UNK         0.2993 
    100 H100       25.7122   23.9500    2.6036 H         1 UNK         0.0949 
    101 H101       23.8943   22.2464    2.7964 H         1 UNK         0.0767 
    102 H102       24.7815   21.1505    1.7444 H         1 UNK         0.0767 
    103 H103       25.4296   21.5769    3.3278 H         1 UNK         0.0767 
    104 H104       27.0427   21.8365    0.9822 H         1 UNK         0.3013 
    105 H105       29.3027   29.2976    1.1553 H         1 UNK         0.3121 
    106 H106       27.3832   28.9164    3.2823 H         1 UNK         0.0774 
    107 H107       26.0992   30.5105    1.8058 H         1 UNK         0.0815 
    108 H108       26.5969   31.3125    3.2800 H         1 UNK         0.0815 
    109 H109       27.4742   31.6110    1.7850 H         1 UNK         0.0815 
    110 H110       27.8827   30.5414    5.0464 H         1 UNK         0.2987 
    111 H111       30.4666   30.2249    5.9908 H         1 UNK         0.0949 
    112 H112       28.4949   30.6035    7.4325 H         1 UNK         0.0806 
    113 H113       29.7334   31.7903    7.7979 H         1 UNK         0.0806 
    114 H114       28.3371   32.2575    6.8372 H         1 UNK         0.0806 
    115 H115       29.3948   32.7211    3.8544 H         1 UNK         0.3010 
    116 H116       31.2922   34.7691    4.2848 H         1 UNK         0.0829 
    117 H117       29.2862   35.0319    2.8408 H         1 UNK         0.0813 
    118 H118       30.7361   35.3910    1.9199 H         1 UNK         0.0813 
    119 H119       29.9219   33.8489    1.6957 H         1 UNK         0.0813 
    120 H120       31.7621   31.5755    2.9369 H         1 UNK         0.3038 
    121 H121       34.2806   32.0758    1.6058 H         1 UNK         0.0769 
    122 H122       34.3920   29.5886    1.5792 H         1 UNK         0.0811 
    123 H123       32.7981   30.1327    1.0812 H         1 UNK         0.0811 
    124 H124       33.0458   29.4933    2.7058 H         1 UNK         0.0811 
    125 H125       33.4817   32.1297    4.9194 H         1 UNK         0.3204 
    126 H126       34.5580   32.1583    6.8229 H         1 UNK         0.0748 
    127 H127       36.9452   32.6763    6.9925 H         1 UNK         0.0771 
    128 H128       37.2285   32.2072    5.3250 H         1 UNK         0.0771 
    129 H129       36.2509   33.6285    5.6912 H         1 UNK         0.0771 
    130 H130       33.7176   29.7110    5.6756 H         1 UNK         0.2980 
    131 H131       35.5492   27.6025    6.3793 H         1 UNK         0.0545 
    132 H132       33.5706   28.4051    9.7845 H         1 UNK         0.3459 
    133 H133       33.6264   29.5525    8.4699 H         1 UNK         0.3459 
    134 H134       34.0787   27.1641    4.5559 H         1 UNK         0.0616 
    135 H135       33.5717   26.1105    5.8442 H         1 UNK         0.0616 
    136 H136       30.9862   25.6467    5.5223 H         1 UNK         0.0634 
    137 H137       29.9782   26.7250    4.5840 H         1 UNK         0.0634 
@<TRIPOS>BOND
     1    1    2 1    
     2    1   72 1    
     3    1   73 1    
     4    1   74 1    
     5    2    3 2    
     6    2    4 am   BACKBONE|DICT|INTERRES
     7    4    5 1    
     8    4   75 1    
     9    5    6 1    
    10    5   35 1    
    11    5   76 1    
    12    6    7 1    
    13    6   77 1    
    14    6   78 1    
    15    7    8 1    
    16    8    9 1    
    17    8   79 1    
    18    8   80 1    
    19    9   10 ar   
    20    9   14 ar   
    21   10   11 ar   
    22   10   81 1    
    23   11   12 ar   
    24   11   71 1    
    25   12   13 ar   
    26   12   82 1    
    27   13   14 ar   
    28   13   15 1    
    29   14   83 1    
    30   15   16 1    
    31   15   84 1    
    32   15   85 1    
    33   16   17 1    
    34   17   18 1    
    35   17   86 1    
    36   17   87 1    
    37   18   19 1    
    38   18   37 1    
    39   18   88 1    
    40   19   20 am   BACKBONE|DICT|INTERRES
    41   19   89 1    
    42   20   21 2    
    43   20   22 1    
    44   22   23 1    
    45   22   24 1    
    46   22   90 1    
    47   23   91 1    
    48   23   92 1    
    49   23   93 1    
    50   24   25 am   BACKBONE|DICT|INTERRES
    51   24   94 1    
    52   25   26 2    
    53   25   27 1    
    54   27   28 1    
    55   27   29 1    
    56   27   95 1    
    57   28   96 1    
    58   28   97 1    
    59   28   98 1    
    60   29   30 am   BACKBONE|DICT|INTERRES
    61   29   99 1    
    62   30   31 2    
    63   30   32 1    
    64   32   33 1    
    65   32   34 1    
    66   32  100 1    
    67   33  101 1    
    68   33  102 1    
    69   33  103 1    
    70   34   35 am   BACKBONE|DICT|INTERRES
    71   34  104 1    
    72   35   36 2    
    73   37   38 2    
    74   37   39 am   BACKBONE|DICT|INTERRES
    75   39   40 1    
    76   39  105 1    
    77   40   41 1    
    78   40   42 1    
    79   40  106 1    
    80   41  107 1    
    81   41  108 1    
    82   41  109 1    
    83   42   43 2    
    84   42   44 am   BACKBONE|DICT|INTERRES
    85   44   45 1    
    86   44  110 1    
    87   45   46 1    
    88   45   47 1    
    89   45  111 1    
    90   46  112 1    
    91   46  113 1    
    92   46  114 1    
    93   47   48 2    
    94   47   49 am   BACKBONE|DICT|INTERRES
    95   49   50 1    
    96   49  115 1    
    97   50   51 1    
    98   50   52 1    
    99   50  116 1    
   100   51  117 1    
   101   51  118 1    
   102   51  119 1    
   103   52   53 2    
   104   52   54 am   BACKBONE|DICT|INTERRES
   105   54   55 1    
   106   54  120 1    
   107   55   56 1    
   108   55   57 1    
   109   55  121 1    
   110   56  122 1    
   111   56  123 1    
   112   56  124 1    
   113   57   58 2    
   114   57   59 am   BACKBONE|DICT|INTERRES
   115   59   60 1    
   116   59  125 1    
   117   60   61 1    
   118   60   62 1    
   119   60  126 1    
   120   61  127 1    
   121   61  128 1    
   122   61  129 1    
   123   62   63 2    
   124   62   64 am   BACKBONE|DICT|INTERRES
   125   64   65 1    
   126   64  130 1    
   127   65   66 1    
   128   65   69 1    
   129   65  131 1    
   130   66   67 am   BACKBONE|DICT|INTERRES
   131   66   68 2    
   132   67  132 1    
   133   67  133 1    
   134   69   70 1    
   135   69  134 1    
   136   69  135 1    
   137   70   71 1    
   138   71  136 1    
   139   71  137 1    
@<TRIPOS>SUBSTRUCTURE
     1 UNK         1 GROUP             0       ****    0 ROOT    
