@<TRIPOS>MOLECULE
3R136
137   139    1
SMALL
USER_CHARGES


@<TRIPOS>ATOM
      1 CA         27.5437   18.4318   -1.0594 C.3       0 UNK        -0.1979 
      2 C          28.4014   19.6428   -1.3964 C.2       0 UNK         0.4864 
      3 O          29.2912   19.5448   -2.2434 O.2       0 UNK        -0.5359 
      4 N          28.1465   20.7797   -0.7354 N.am      1 UNK        -0.4318 
      5 CA         28.8212   22.0580   -0.9819 C.3       1 UNK         0.0824 
      6 C6         28.6728   23.0090    0.2340 C.3       12 UNK        -0.0944 
      7 S7         30.0444   24.2096    0.3535 S.3       12 UNK        -0.2672 
      8 C8         31.1757   23.3657    1.5081 C.3       12 UNK         0.0333 
      9 C9         31.0344   23.8594    2.9442 C.ar      12 UNK        -0.0807 
     10 C10        32.0842   24.5605    3.5498 C.ar      12 UNK        -0.0894 
     11 C11        31.9890   24.9708    4.8833 C.ar      12 UNK        -0.0804 
     12 C12        30.8282   24.6919    5.6077 C.ar      12 UNK        -0.0824 
     13 C13        29.7618   24.0174    5.0088 C.ar      12 UNK        -0.0762 
     14 C14        29.8765   23.5897    3.6830 C.ar      12 UNK        -0.0782 
     15 C15        28.4828   23.7624    5.7936 C.3       12 UNK         0.0230 
     16 S16        27.1319   24.8742    5.2794 S.3       12 UNK        -0.2608 
     17 C17        27.8535   26.5283    5.5695 C.3       12 UNK        -0.0989 
     18 CA         28.3096   27.1983    4.2429 C.3       5 UNK         0.0716 
     19 N          27.1842   27.3759    3.3173 N.am      5 UNK        -0.4135 
     20 C          27.2735   27.5061    1.9874 C.2       4 UNK         0.5031 
     21 O          28.3291   27.4306    1.3540 O.2       4 UNK        -0.5229 
     22 CA         25.9497   27.8078    1.2550 C.3       4 UNK         0.0329 
     23 CB         25.3714   29.1668    1.6946 C.3       4 UNK        -0.2001 
     24 N          26.1331   27.8241   -0.1981 N.am      4 UNK        -0.4303 
     25 C          26.3155   26.7342   -0.9533 C.2       3 UNK         0.5044 
     26 O          26.1596   25.5833   -0.5387 O.2       3 UNK        -0.5152 
     27 CA         26.7542   26.9584   -2.4100 C.3       3 UNK         0.0319 
     28 CB         27.4131   28.3325   -2.6693 C.3       3 UNK        -0.2001 
     29 N          27.6783   25.8891   -2.7759 N.am      3 UNK        -0.4354 
     30 C          27.8639   25.3984   -4.0061 C.2       2 UNK         0.4964 
     31 O          27.2851   25.8248   -5.0065 O.2       2 UNK        -0.5047 
     32 CA         28.8730   24.2441   -4.1614 C.3       2 UNK         0.0288 
     33 CB         30.1928   24.7637   -4.7562 C.3       2 UNK        -0.2113 
     34 N          29.1640   23.5313   -2.9125 N.am      2 UNK        -0.4145 
     35 C          28.3139   22.7031   -2.2905 C.2       1 UNK         0.5006 
     36 O          27.1762   22.4573   -2.7023 O.2       1 UNK        -0.5103 
     37 C          29.0678   28.5359    4.4319 C.2       5 UNK         0.5055 
     38 O          29.3717   29.2037    3.4430 O.2       5 UNK        -0.5220 
     39 N          29.3619   28.9448    5.6760 N.am      6 UNK        -0.4450 
     40 CA         30.1712   30.1306    6.0078 C.3       6 UNK         0.0367 
     41 CB         30.3255   30.2305    7.5329 C.3       6 UNK        -0.1929 
     42 C          29.6736   31.4681    5.4211 C.2       6 UNK         0.5070 
     43 O          30.4722   32.3911    5.2693 O.2       6 UNK        -0.5237 
     44 N          28.3861   31.5390    5.0586 N.am      7 UNK        -0.4739 
     45 CA         27.7729   32.6578    4.3404 C.3       7 UNK         0.0276 
     46 CB         26.2461   32.4758    4.3510 C.3       7 UNK        -0.1927 
     47 C          28.2769   32.8413    2.8930 C.2       7 UNK         0.5013 
     48 O          28.1487   33.9488    2.3689 O.2       7 UNK        -0.5193 
     49 N          28.8152   31.7817    2.2685 N.am      8 UNK        -0.4253 
     50 CA         29.3073   31.7986    0.8853 C.3       8 UNK         0.0242 
     51 CB         28.3357   31.0271   -0.0231 C.3       8 UNK        -0.2000 
     52 C          30.7262   31.2268    0.7607 C.2       8 UNK         0.4948 
     53 O          31.5399   31.7978    0.0341 O.2       8 UNK        -0.5275 
     54 N          31.0099   30.1219    1.4622 N.am      9 UNK        -0.4246 
     55 CA         32.2983   29.4253    1.4445 C.3       9 UNK         0.0261 
     56 CB         32.0765   27.9591    1.8581 C.3       9 UNK        -0.1959 
     57 C          33.3617   30.0798    2.3438 C.2       9 UNK         0.5033 
     58 O          34.5289   29.6943    2.2539 O.2       9 UNK        -0.5390 
     59 N          32.9536   31.0203    3.2116 N.am      10 UNK        -0.4215 
     60 CA         33.7354   31.7572    4.2190 C.3       10 UNK         0.0240 
     61 CB         34.8758   32.5723    3.5776 C.3       10 UNK        -0.1982 
     62 C          34.2525   30.8848    5.3777 C.2       10 UNK         0.4970 
     63 O          34.1040   31.2773    6.5350 O.2       10 UNK        -0.4916 
     64 N          34.8253   29.7223    5.0463 N.am      11 UNK        -0.4279 
     65 CA         35.2935   28.6662    5.9592 C.3       11 UNK         0.1003 
     66 C          36.5280   29.0505    6.8308 C.2       11 UNK         0.5709 
     67 N          37.2623   30.1085    6.5070 N.am      11 UNK        -0.7358 
     68 O          36.8512   28.3617    7.7961 O.2       11 UNK        -0.4999 
     69 C69        34.1418   28.0299    6.7911 C.3       12 UNK        -0.0954 
     70 S70        32.7425   27.4663    5.7639 S.3       12 UNK        -0.2268 
     71 C71        33.1360   25.7061    5.5576 C.3       12 UNK         0.0203 
     72 H72        26.8094   18.6545   -0.2855 H         1 UNK         0.0888 
     73 H73        27.0091   18.0929   -1.9463 H         1 UNK         0.0888 
     74 H74        28.1711   17.6141   -0.7057 H         1 UNK         0.0888 
     75 H75        27.3767   20.8089   -0.0824 H         1 UNK         0.3017 
     76 H76        29.8822   21.8312   -1.1127 H         1 UNK         0.0873 
     77 H77        27.7249   23.5494    0.2077 H         1 UNK         0.0745 
     78 H78        28.6457   22.4282    1.1552 H         1 UNK         0.0745 
     79 H79        32.1951   23.5271    1.1545 H         1 UNK         0.0705 
     80 H80        31.0182   22.2868    1.4733 H         1 UNK         0.0705 
     81 H81        32.9833   24.7750    2.9882 H         1 UNK         0.1334 
     82 H82        30.7533   25.0170    6.6366 H         1 UNK         0.1417 
     83 H83        29.0531   23.0587    3.2295 H         1 UNK         0.1562 
     84 H84        28.6547   23.8786    6.8649 H         1 UNK         0.0748 
     85 H85        28.1661   22.7288    5.6469 H         1 UNK         0.0748 
     86 H86        28.6824   26.4240    6.2705 H         1 UNK         0.0940 
     87 H87        27.1033   27.1408    6.0734 H         1 UNK         0.0940 
     88 H88        29.0280   26.5285    3.7651 H         1 UNK         0.0703 
     89 H89        26.2738   27.4443    3.7460 H         1 UNK         0.3081 
     90 H90        25.2338   27.0224    1.5071 H         1 UNK         0.0719 
     91 H91        26.0869   29.9776    1.5571 H         1 UNK         0.0809 
     92 H92        24.4711   29.4160    1.1325 H         1 UNK         0.0809 
     93 H93        25.0931   29.1583    2.7488 H         1 UNK         0.0809 
     94 H94        26.3092   28.7241   -0.6175 H         1 UNK         0.2990 
     95 H95        25.8545   26.8770   -3.0233 H         1 UNK         0.0690 
     96 H96        27.7514   28.4191   -3.7021 H         1 UNK         0.0788 
     97 H97        28.2799   28.4902   -2.0256 H         1 UNK         0.0788 
     98 H98        26.7141   29.1525   -2.5016 H         1 UNK         0.0788 
     99 H99        28.1437   25.4413   -1.9974 H         1 UNK         0.2993 
    100 H100       28.4381   23.5307   -4.8652 H         1 UNK         0.0949 
    101 H101       30.6831   25.4752   -4.0904 H         1 UNK         0.0767 
    102 H102       30.8897   23.9480   -4.9505 H         1 UNK         0.0767 
    103 H103       30.0201   25.2721   -5.7060 H         1 UNK         0.0767 
    104 H104       30.0691   23.6997   -2.4955 H         1 UNK         0.3013 
    105 H105       29.0760   28.3717    6.4556 H         1 UNK         0.3121 
    106 H106       31.1627   29.9653    5.5828 H         1 UNK         0.0774 
    107 H107       30.9520   31.0813    7.8056 H         1 UNK         0.0815 
    108 H108       29.3631   30.3595    8.0293 H         1 UNK         0.0815 
    109 H109       30.8032   29.3399    7.9420 H         1 UNK         0.0815 
    110 H110       27.8058   30.7294    5.2206 H         1 UNK         0.2987 
    111 H111       28.0134   33.5749    4.8829 H         1 UNK         0.0949 
    112 H112       25.7497   33.3096    3.8523 H         1 UNK         0.0806 
    113 H113       25.9443   31.5630    3.8359 H         1 UNK         0.0806 
    114 H114       25.8574   32.4334    5.3686 H         1 UNK         0.0806 
    115 H115       28.9064   30.9071    2.7797 H         1 UNK         0.3010 
    116 H116       29.3584   32.8263    0.5191 H         1 UNK         0.0829 
    117 H117       27.3401   31.4703   -0.0048 H         1 UNK         0.0813 
    118 H118       28.6768   31.0401   -1.0593 H         1 UNK         0.0813 
    119 H119       28.2502   29.9831    0.2783 H         1 UNK         0.0813 
    120 H120       30.2930   29.7035    2.0564 H         1 UNK         0.3038 
    121 H121       32.6850   29.4342    0.4233 H         1 UNK         0.0769 
    122 H122       33.0012   27.3854    1.7849 H         1 UNK         0.0811 
    123 H123       31.3398   27.4701    1.2195 H         1 UNK         0.0811 
    124 H124       31.7266   27.8775    2.8874 H         1 UNK         0.0811 
    125 H125       31.9656   31.2319    3.2095 H         1 UNK         0.3204 
    126 H126       33.0415   32.4744    4.6591 H         1 UNK         0.0748 
    127 H127       35.3737   33.1944    4.3225 H         1 UNK         0.0771 
    128 H128       35.6376   31.9345    3.1287 H         1 UNK         0.0771 
    129 H129       34.4971   33.2375    2.8015 H         1 UNK         0.0771 
    130 H130       34.9022   29.5182    4.0525 H         1 UNK         0.2980 
    131 H131       35.6708   27.8830    5.3012 H         1 UNK         0.0545 
    132 H132       38.0656   30.3433    7.0683 H         1 UNK         0.3459 
    133 H133       37.0157   30.6754    5.7120 H         1 UNK         0.3459 
    134 H134       33.7561   28.7484    7.5159 H         1 UNK         0.0616 
    135 H135       34.5088   27.1848    7.3757 H         1 UNK         0.0616 
    136 H136       33.3284   25.2561    6.5327 H         1 UNK         0.0634 
    137 H137       34.0560   25.6087    4.9793 H         1 UNK         0.0634 
@<TRIPOS>BOND
     1    1    2 1    
     2    1   72 1    
     3    1   73 1    
     4    1   74 1    
     5    2    3 2    
     6    2    4 am   BACKBONE|DICT|INTERRES
     7    4    5 1    
     8    4   75 1    
     9    5    6 1    
    10    5   35 1    
    11    5   76 1    
    12    6    7 1    
    13    6   77 1    
    14    6   78 1    
    15    7    8 1    
    16    8    9 1    
    17    8   79 1    
    18    8   80 1    
    19    9   10 ar   
    20    9   14 ar   
    21   10   11 ar   
    22   10   81 1    
    23   11   12 ar   
    24   11   71 1    
    25   12   13 ar   
    26   12   82 1    
    27   13   14 ar   
    28   13   15 1    
    29   14   83 1    
    30   15   16 1    
    31   15   84 1    
    32   15   85 1    
    33   16   17 1    
    34   17   18 1    
    35   17   86 1    
    36   17   87 1    
    37   18   19 1    
    38   18   37 1    
    39   18   88 1    
    40   19   20 am   BACKBONE|DICT|INTERRES
    41   19   89 1    
    42   20   21 2    
    43   20   22 1    
    44   22   23 1    
    45   22   24 1    
    46   22   90 1    
    47   23   91 1    
    48   23   92 1    
    49   23   93 1    
    50   24   25 am   BACKBONE|DICT|INTERRES
    51   24   94 1    
    52   25   26 2    
    53   25   27 1    
    54   27   28 1    
    55   27   29 1    
    56   27   95 1    
    57   28   96 1    
    58   28   97 1    
    59   28   98 1    
    60   29   30 am   BACKBONE|DICT|INTERRES
    61   29   99 1    
    62   30   31 2    
    63   30   32 1    
    64   32   33 1    
    65   32   34 1    
    66   32  100 1    
    67   33  101 1    
    68   33  102 1    
    69   33  103 1    
    70   34   35 am   BACKBONE|DICT|INTERRES
    71   34  104 1    
    72   35   36 2    
    73   37   38 2    
    74   37   39 am   BACKBONE|DICT|INTERRES
    75   39   40 1    
    76   39  105 1    
    77   40   41 1    
    78   40   42 1    
    79   40  106 1    
    80   41  107 1    
    81   41  108 1    
    82   41  109 1    
    83   42   43 2    
    84   42   44 am   BACKBONE|DICT|INTERRES
    85   44   45 1    
    86   44  110 1    
    87   45   46 1    
    88   45   47 1    
    89   45  111 1    
    90   46  112 1    
    91   46  113 1    
    92   46  114 1    
    93   47   48 2    
    94   47   49 am   BACKBONE|DICT|INTERRES
    95   49   50 1    
    96   49  115 1    
    97   50   51 1    
    98   50   52 1    
    99   50  116 1    
   100   51  117 1    
   101   51  118 1    
   102   51  119 1    
   103   52   53 2    
   104   52   54 am   BACKBONE|DICT|INTERRES
   105   54   55 1    
   106   54  120 1    
   107   55   56 1    
   108   55   57 1    
   109   55  121 1    
   110   56  122 1    
   111   56  123 1    
   112   56  124 1    
   113   57   58 2    
   114   57   59 am   BACKBONE|DICT|INTERRES
   115   59   60 1    
   116   59  125 1    
   117   60   61 1    
   118   60   62 1    
   119   60  126 1    
   120   61  127 1    
   121   61  128 1    
   122   61  129 1    
   123   62   63 2    
   124   62   64 am   BACKBONE|DICT|INTERRES
   125   64   65 1    
   126   64  130 1    
   127   65   66 1    
   128   65   69 1    
   129   65  131 1    
   130   66   67 am   BACKBONE|DICT|INTERRES
   131   66   68 2    
   132   67  132 1    
   133   67  133 1    
   134   69   70 1    
   135   69  134 1    
   136   69  135 1    
   137   70   71 1    
   138   71  136 1    
   139   71  137 1    
@<TRIPOS>SUBSTRUCTURE
     1 UNK         1 GROUP             0       ****    0 ROOT    
