@<TRIPOS>MOLECULE
3R136
137   139    1
SMALL
USER_CHARGES


@<TRIPOS>ATOM
      1 CA         26.8118   20.5103    0.7615 C.3       0 UNK        -0.1979 
      2 C          28.1326   21.1771    0.4071 C.2       0 UNK         0.4864 
      3 O          29.1764   20.7772    0.9234 O.2       0 UNK        -0.5359 
      4 N          28.0943   22.1870   -0.4673 N.am      1 UNK        -0.4318 
      5 CA         29.2468   22.9562   -0.9309 C.3       1 UNK         0.0824 
      6 C6         29.6426   24.0742    0.0751 C.3       12 UNK        -0.0944 
      7 S7         31.4482   24.3219    0.1701 S.3       12 UNK        -0.2672 
      8 C8         31.9205   23.2611    1.5794 C.3       12 UNK         0.0333 
      9 C9         31.3514   23.7636    2.8997 C.ar      12 UNK        -0.0807 
     10 C10        31.9635   24.8169    3.5849 C.ar      12 UNK        -0.0894 
     11 C11        31.4077   25.3124    4.7694 C.ar      12 UNK        -0.0804 
     12 C12        30.2455   24.7279    5.2828 C.ar      12 UNK        -0.0824 
     13 C13        29.6194   23.6823    4.5975 C.ar      12 UNK        -0.0762 
     14 C14        30.1920   23.1882    3.4245 C.ar      12 UNK        -0.0782 
     15 C15        28.2924   23.1176    5.0776 C.3       12 UNK         0.0230 
     16 S16        26.8993   23.9163    4.2107 S.3       12 UNK        -0.2608 
     17 C17        26.8413   25.5389    5.0420 C.3       12 UNK        -0.0989 
     18 CA         27.5249   26.6690    4.2292 C.3       5 UNK         0.0716 
     19 N          26.8106   26.9685    2.9819 N.am      5 UNK        -0.4135 
     20 C          27.1228   27.9272    2.0984 C.2       4 UNK         0.5031 
     21 O          28.0214   28.7612    2.2513 O.2       4 UNK        -0.5229 
     22 CA         26.3038   27.9711    0.8071 C.3       4 UNK         0.0329 
     23 CB         25.2805   29.1184    0.8444 C.3       4 UNK        -0.2001 
     24 N          27.2401   28.1742   -0.2953 N.am      4 UNK        -0.4303 
     25 C          27.1426   27.6337   -1.5143 C.2       3 UNK         0.5044 
     26 O          26.1865   26.9460   -1.8776 O.2       3 UNK        -0.5152 
     27 CA         28.3105   27.8569   -2.4928 C.3       3 UNK         0.0319 
     28 CB         29.5513   28.5309   -1.8578 C.3       3 UNK        -0.2001 
     29 N          28.6535   26.5479   -3.0394 N.am      3 UNK        -0.4354 
     30 C          29.5061   26.2636   -4.0301 C.2       2 UNK         0.4964 
     31 O          30.0877   27.1205   -4.6976 O.2       2 UNK        -0.5047 
     32 CA         29.7740   24.7640   -4.2924 C.3       2 UNK         0.0288 
     33 CB         31.0264   24.5287   -5.1585 C.3       2 UNK        -0.2113 
     34 N          29.9182   24.0138   -3.0378 N.am      2 UNK        -0.4145 
     35 C          28.9006   23.5369   -2.3103 C.2       1 UNK         0.5006 
     36 O          27.7197   23.6146   -2.6629 O.2       1 UNK        -0.5103 
     37 C          27.7026   27.9160    5.1156 C.2       5 UNK         0.5055 
     38 O          26.7136   28.4198    5.6508 O.2       5 UNK        -0.5220 
     39 N          28.9496   28.3998    5.2191 N.am      6 UNK        -0.4450 
     40 CA         29.4356   29.5721    5.9665 C.3       6 UNK         0.0367 
     41 CB         29.1956   29.4037    7.4790 C.3       6 UNK        -0.1929 
     42 C          28.9131   30.9371    5.4719 C.2       6 UNK         0.5070 
     43 O          29.6184   31.9353    5.6178 O.2       6 UNK        -0.5237 
     44 N          27.7056   30.9692    4.8961 N.am      7 UNK        -0.4739 
     45 CA         27.0636   32.1460    4.3100 C.3       7 UNK         0.0276 
     46 CB         25.5917   31.8181    4.0131 C.3       7 UNK        -0.1927 
     47 C          27.7696   32.6527    3.0416 C.2       7 UNK         0.5013 
     48 O          27.7512   33.8586    2.7900 O.2       7 UNK        -0.5193 
     49 N          28.3770   31.7358    2.2775 N.am      8 UNK        -0.4253 
     50 CA         29.1576   32.0449    1.0788 C.3       8 UNK         0.0242 
     51 CB         28.2701   31.9172   -0.1711 C.3       8 UNK        -0.2000 
     52 C          30.4277   31.1882    0.9665 C.2       8 UNK         0.4948 
     53 O          31.4196   31.6734    0.4208 O.2       8 UNK        -0.5275 
     54 N          30.3971   29.9451    1.4702 N.am      9 UNK        -0.4246 
     55 CA         31.5476   29.0428    1.5121 C.3       9 UNK         0.0261 
     56 CB         31.0681   27.6228    1.8396 C.3       9 UNK        -0.1959 
     57 C          32.5881   29.5225    2.5385 C.2       9 UNK         0.5033 
     58 O          32.2268   29.8427    3.6742 O.2       9 UNK        -0.5390 
     59 N          33.8578   29.5626    2.1206 N.am      10 UNK        -0.4215 
     60 CA         34.9721   30.1681    2.8519 C.3       10 UNK         0.0240 
     61 CB         36.0583   30.5768    1.8375 C.3       10 UNK        -0.1982 
     62 C          35.5280   29.2859    3.9881 C.2       10 UNK         0.4970 
     63 O          36.6987   28.9019    3.9457 O.2       10 UNK        -0.4916 
     64 N          34.6989   29.0117    5.0026 N.am      11 UNK        -0.4279 
     65 CA         35.1443   28.4508    6.2936 C.3       11 UNK         0.1003 
     66 C          35.8193   29.4972    7.2307 C.2       11 UNK         0.5709 
     67 N          35.7337   30.7953    6.9610 N.am      11 UNK        -0.7358 
     68 O          36.4462   29.1209    8.2183 O.2       11 UNK        -0.4999 
     69 C69        34.0089   27.6967    7.0342 C.3       12 UNK        -0.0954 
     70 S70        33.6049   26.1038    6.2484 S.3       12 UNK        -0.2268 
     71 C71        32.0279   26.5169    5.4592 C.3       12 UNK         0.0203 
     72 H72        26.6123   20.6200    1.8273 H         1 UNK         0.0888 
     73 H73        25.9761   20.9454    0.2137 H         1 UNK         0.0888 
     74 H74        26.8534   19.4466    0.5290 H         1 UNK         0.0888 
     75 H75        27.2272   22.4499   -0.9212 H         1 UNK         0.3017 
     76 H76        30.0762   22.2584   -1.0685 H         1 UNK         0.0873 
     77 H77        29.1783   25.0311   -0.1736 H         1 UNK         0.0745 
     78 H78        29.2623   23.8491    1.0686 H         1 UNK         0.0745 
     79 H79        33.0088   23.2260    1.6439 H         1 UNK         0.0705 
     80 H80        31.5939   22.2384    1.3839 H         1 UNK         0.0705 
     81 H81        32.8598   25.2693    3.1831 H         1 UNK         0.1334 
     82 H82        29.8038   25.1146    6.1910 H         1 UNK         0.1417 
     83 H83        29.7057   22.3812    2.8941 H         1 UNK         0.1562 
     84 H84        28.1848   23.2335    6.1572 H         1 UNK         0.0748 
     85 H85        28.2585   22.0443    4.8835 H         1 UNK         0.0748 
     86 H86        27.2949   25.4386    6.0301 H         1 UNK         0.0940 
     87 H87        25.7947   25.7880    5.2291 H         1 UNK         0.0940 
     88 H88        28.5153   26.3254    3.9288 H         1 UNK         0.0703 
     89 H89        26.0450   26.3466    2.7680 H         1 UNK         0.3081 
     90 H90        25.7813   27.0198    0.6836 H         1 UNK         0.0719 
     91 H91        25.7641   30.0881    0.9691 H         1 UNK         0.0809 
     92 H92        24.6947   29.1542   -0.0741 H         1 UNK         0.0809 
     93 H93        24.5806   28.9922    1.6713 H         1 UNK         0.0809 
     94 H94        28.0824   28.6717   -0.0428 H         1 UNK         0.2990 
     95 H95        27.9400   28.4858   -3.3043 H         1 UNK         0.0690 
     96 H96        30.3330   28.7062   -2.5964 H         1 UNK         0.0788 
     97 H97        29.9852   27.9181   -1.0685 H         1 UNK         0.0788 
     98 H98        29.3100   29.5068   -1.4400 H         1 UNK         0.0788 
     99 H99        28.1391   25.7768   -2.6276 H         1 UNK         0.2993 
    100 H100       28.9127   24.3805   -4.8442 H         1 UNK         0.0949 
    101 H101       31.9253   24.9229   -4.6829 H         1 UNK         0.0767 
    102 H102       31.1840   23.4665   -5.3469 H         1 UNK         0.0767 
    103 H103       30.9293   25.0155   -6.1299 H         1 UNK         0.0767 
    104 H104       30.8501   23.9673   -2.6486 H         1 UNK         0.3013 
    105 H105       29.6593   27.9464    4.6632 H         1 UNK         0.3121 
    106 H106       30.5153   29.5900    5.8088 H         1 UNK         0.0774 
    107 H107       29.6479   30.2245    8.0372 H         1 UNK         0.0815 
    108 H108       28.1333   29.3935    7.7246 H         1 UNK         0.0815 
    109 H109       29.6362   28.4785    7.8503 H         1 UNK         0.0815 
    110 H110       27.1744   30.1032    4.8997 H         1 UNK         0.2987 
    111 H111       27.0972   32.9505    5.0479 H         1 UNK         0.0949 
    112 H112       25.0793   32.6767    3.5767 H         1 UNK         0.0806 
    113 H113       25.4970   30.9887    3.3117 H         1 UNK         0.0806 
    114 H114       25.0547   31.5491    4.9229 H         1 UNK         0.0806 
    115 H115       28.3172   30.7632    2.5570 H         1 UNK         0.3010 
    116 H116       29.5072   33.0783    1.1362 H         1 UNK         0.0829 
    117 H117       27.4763   32.6643   -0.1645 H         1 UNK         0.0813 
    118 H118       28.8485   32.0693   -1.0835 H         1 UNK         0.0813 
    119 H119       27.7989   30.9380   -0.2350 H         1 UNK         0.0813 
    120 H120       29.5401   29.5858    1.8833 H         1 UNK         0.3038 
    121 H121       31.9998   29.0288    0.5180 H         1 UNK         0.0769 
    122 H122       31.9001   26.9224    1.7836 H         1 UNK         0.0811 
    123 H123       30.3111   27.2745    1.1385 H         1 UNK         0.0811 
    124 H124       30.6424   27.5577    2.8396 H         1 UNK         0.0811 
    125 H125       34.0679   29.2336    1.1892 H         1 UNK         0.3204 
    126 H126       34.6102   31.0864    3.3201 H         1 UNK         0.0748 
    127 H127       36.8907   31.0774    2.3344 H         1 UNK         0.0771 
    128 H128       36.4649   29.7134    1.3091 H         1 UNK         0.0771 
    129 H129       35.6660   31.2714    1.0942 H         1 UNK         0.0771 
    130 H130       33.7397   29.3357    4.9374 H         1 UNK         0.2980 
    131 H131       35.9277   27.7191    6.0857 H         1 UNK         0.0545 
    132 H132       35.2166   31.1235    6.1622 H         1 UNK         0.3459 
    133 H133       36.1826   31.4550    7.5767 H         1 UNK         0.3459 
    134 H134       33.1185   28.3224    7.1170 H         1 UNK         0.0616 
    135 H135       34.3024   27.4596    8.0587 H         1 UNK         0.0616 
    136 H136       32.1944   27.3096    4.7303 H         1 UNK         0.0634 
    137 H137       31.3486   26.9198    6.2120 H         1 UNK         0.0634 
@<TRIPOS>BOND
     1    1    2 1    
     2    1   72 1    
     3    1   73 1    
     4    1   74 1    
     5    2    3 2    
     6    2    4 am   BACKBONE|DICT|INTERRES
     7    4    5 1    
     8    4   75 1    
     9    5    6 1    
    10    5   35 1    
    11    5   76 1    
    12    6    7 1    
    13    6   77 1    
    14    6   78 1    
    15    7    8 1    
    16    8    9 1    
    17    8   79 1    
    18    8   80 1    
    19    9   10 ar   
    20    9   14 ar   
    21   10   11 ar   
    22   10   81 1    
    23   11   12 ar   
    24   11   71 1    
    25   12   13 ar   
    26   12   82 1    
    27   13   14 ar   
    28   13   15 1    
    29   14   83 1    
    30   15   16 1    
    31   15   84 1    
    32   15   85 1    
    33   16   17 1    
    34   17   18 1    
    35   17   86 1    
    36   17   87 1    
    37   18   19 1    
    38   18   37 1    
    39   18   88 1    
    40   19   20 am   BACKBONE|DICT|INTERRES
    41   19   89 1    
    42   20   21 2    
    43   20   22 1    
    44   22   23 1    
    45   22   24 1    
    46   22   90 1    
    47   23   91 1    
    48   23   92 1    
    49   23   93 1    
    50   24   25 am   BACKBONE|DICT|INTERRES
    51   24   94 1    
    52   25   26 2    
    53   25   27 1    
    54   27   28 1    
    55   27   29 1    
    56   27   95 1    
    57   28   96 1    
    58   28   97 1    
    59   28   98 1    
    60   29   30 am   BACKBONE|DICT|INTERRES
    61   29   99 1    
    62   30   31 2    
    63   30   32 1    
    64   32   33 1    
    65   32   34 1    
    66   32  100 1    
    67   33  101 1    
    68   33  102 1    
    69   33  103 1    
    70   34   35 am   BACKBONE|DICT|INTERRES
    71   34  104 1    
    72   35   36 2    
    73   37   38 2    
    74   37   39 am   BACKBONE|DICT|INTERRES
    75   39   40 1    
    76   39  105 1    
    77   40   41 1    
    78   40   42 1    
    79   40  106 1    
    80   41  107 1    
    81   41  108 1    
    82   41  109 1    
    83   42   43 2    
    84   42   44 am   BACKBONE|DICT|INTERRES
    85   44   45 1    
    86   44  110 1    
    87   45   46 1    
    88   45   47 1    
    89   45  111 1    
    90   46  112 1    
    91   46  113 1    
    92   46  114 1    
    93   47   48 2    
    94   47   49 am   BACKBONE|DICT|INTERRES
    95   49   50 1    
    96   49  115 1    
    97   50   51 1    
    98   50   52 1    
    99   50  116 1    
   100   51  117 1    
   101   51  118 1    
   102   51  119 1    
   103   52   53 2    
   104   52   54 am   BACKBONE|DICT|INTERRES
   105   54   55 1    
   106   54  120 1    
   107   55   56 1    
   108   55   57 1    
   109   55  121 1    
   110   56  122 1    
   111   56  123 1    
   112   56  124 1    
   113   57   58 2    
   114   57   59 am   BACKBONE|DICT|INTERRES
   115   59   60 1    
   116   59  125 1    
   117   60   61 1    
   118   60   62 1    
   119   60  126 1    
   120   61  127 1    
   121   61  128 1    
   122   61  129 1    
   123   62   63 2    
   124   62   64 am   BACKBONE|DICT|INTERRES
   125   64   65 1    
   126   64  130 1    
   127   65   66 1    
   128   65   69 1    
   129   65  131 1    
   130   66   67 am   BACKBONE|DICT|INTERRES
   131   66   68 2    
   132   67  132 1    
   133   67  133 1    
   134   69   70 1    
   135   69  134 1    
   136   69  135 1    
   137   70   71 1    
   138   71  136 1    
   139   71  137 1    
@<TRIPOS>SUBSTRUCTURE
     1 UNK         1 GROUP             0       ****    0 ROOT    
