@<TRIPOS>MOLECULE
3R136
137   139    1
SMALL
USER_CHARGES


@<TRIPOS>ATOM
      1 CA         26.4522   22.6502    0.5543 C.3       0 UNK        -0.1979 
      2 C          27.5929   22.6347   -0.4499 C.2       0 UNK         0.4864 
      3 O          27.3768   22.9178   -1.6286 O.2       0 UNK        -0.5359 
      4 N          28.8052   22.2876    0.0041 N.am      1 UNK        -0.4318 
      5 CA         30.0013   22.1580   -0.8418 C.3       1 UNK         0.0824 
      6 C6         31.1313   21.3509   -0.1578 C.3       12 UNK        -0.0944 
      7 S7         30.5376   19.7426    0.4752 S.3       12 UNK        -0.2672 
      8 C8         31.2634   19.6763    2.1444 C.3       12 UNK         0.0333 
      9 C9         30.8228   20.8278    3.0405 C.ar      12 UNK        -0.0807 
     10 C10        31.7425   21.8184    3.3998 C.ar      12 UNK        -0.0894 
     11 C11        31.3713   22.8483    4.2659 C.ar      12 UNK        -0.0804 
     12 C12        30.0745   22.8815    4.7802 C.ar      12 UNK        -0.0824 
     13 C13        29.1361   21.9112    4.4162 C.ar      12 UNK        -0.0762 
     14 C14        29.5174   20.8842    3.5437 C.ar      12 UNK        -0.0782 
     15 C15        27.7307   21.9449    5.0062 C.3       12 UNK         0.0230 
     16 S16        26.6247   23.1069    4.1376 S.3       12 UNK        -0.2608 
     17 C17        27.1671   24.7254    4.7839 C.3       12 UNK        -0.0989 
     18 CA         27.8161   25.6004    3.6716 C.3       5 UNK         0.0716 
     19 N          26.8462   26.0837    2.6728 N.am      5 UNK        -0.4135 
     20 C          25.8204   26.9203    2.8970 C.2       4 UNK         0.5031 
     21 O          25.5263   27.3618    4.0094 O.2       4 UNK        -0.5229 
     22 CA         25.0012   27.3525    1.6668 C.3       4 UNK         0.0329 
     23 CB         24.0297   28.5074    1.9782 C.3       4 UNK        -0.2001 
     24 N          25.8826   27.7669    0.5741 N.am      4 UNK        -0.4303 
     25 C          26.1443   27.0488   -0.5254 C.2       3 UNK         0.5044 
     26 O          25.6742   25.9313   -0.7376 O.2       3 UNK        -0.5152 
     27 CA         27.1092   27.6621   -1.5625 C.3       3 UNK         0.0319 
     28 CB         27.3238   29.1824   -1.4023 C.3       3 UNK        -0.2001 
     29 N          28.4058   26.9743   -1.6089 N.am      3 UNK        -0.4354 
     30 C          29.2102   26.6974   -0.5728 C.2       2 UNK         0.4964 
     31 O          28.9379   26.9391    0.6043 O.2       2 UNK        -0.5047 
     32 CA         30.5171   25.9705   -0.8950 C.3       2 UNK         0.0288 
     33 CB         31.6998   26.5395   -0.0901 C.3       2 UNK        -0.2113 
     34 N          30.3038   24.5746   -0.5372 N.am      2 UNK        -0.4145 
     35 C          30.5220   23.5236   -1.3370 C.2       1 UNK         0.5006 
     36 O          31.0810   23.5978   -2.4329 O.2       1 UNK        -0.5103 
     37 C          28.6956   26.7520    4.2182 C.2       5 UNK         0.5055 
     38 O          29.0972   26.7294    5.3830 O.2       5 UNK        -0.5220 
     39 N          28.9835   27.7214    3.3421 N.am      6 UNK        -0.4450 
     40 CA         29.7780   28.9323    3.5124 C.3       6 UNK         0.0367 
     41 CB         29.3911   29.7408    4.7684 C.3       6 UNK        -0.1929 
     42 C          29.5274   29.7815    2.2646 C.2       6 UNK         0.5070 
     43 O          28.3669   30.0406    1.9358 O.2       6 UNK        -0.5237 
     44 N          30.5970   30.2519    1.6148 N.am      7 UNK        -0.4739 
     45 CA         30.5447   31.1833    0.4855 C.3       7 UNK         0.0276 
     46 CB         31.7804   30.9640   -0.4063 C.3       7 UNK        -0.1927 
     47 C          30.4327   32.6269    1.0064 C.2       7 UNK         0.5013 
     48 O          31.3212   33.4472    0.7652 O.2       7 UNK        -0.5193 
     49 N          29.3609   32.8835    1.7694 N.am      8 UNK        -0.4253 
     50 CA         29.0209   34.1013    2.5152 C.3       8 UNK         0.0242 
     51 CB         28.8193   35.3085    1.5771 C.3       8 UNK        -0.2000 
     52 C          30.0029   34.4272    3.6556 C.2       8 UNK         0.4948 
     53 O          29.5780   34.5124    4.8080 O.2       8 UNK        -0.5275 
     54 N          31.2845   34.6138    3.3191 N.am      9 UNK        -0.4246 
     55 CA         32.3532   34.9736    4.2507 C.3       9 UNK         0.0261 
     56 CB         33.5117   35.6224    3.4750 C.3       9 UNK        -0.1959 
     57 C          32.8537   33.7767    5.0738 C.2       9 UNK         0.5033 
     58 O          33.0223   33.9095    6.2870 O.2       9 UNK        -0.5390 
     59 N          33.0937   32.6413    4.4071 N.am      10 UNK        -0.4215 
     60 CA         33.6416   31.4131    4.9814 C.3       10 UNK         0.0240 
     61 CB         35.1390   31.5954    5.3064 C.3       10 UNK        -0.1982 
     62 C          33.4460   30.2655    3.9850 C.2       10 UNK         0.4970 
     63 O          33.1555   30.5167    2.8133 O.2       10 UNK        -0.4916 
     64 N          33.6064   29.0287    4.4647 N.am      11 UNK        -0.4279 
     65 CA         33.6014   27.8096    3.6429 C.3       11 UNK         0.1003 
     66 C          34.9380   27.5932    2.8768 C.2       11 UNK         0.5709 
     67 N          34.9513   26.6981    1.8992 N.am      11 UNK        -0.7358 
     68 O          35.9629   28.2076    3.1688 O.2       11 UNK        -0.4999 
     69 C69        33.1943   26.5791    4.4981 C.3       12 UNK        -0.0954 
     70 S70        32.2354   25.3551    3.5522 S.3       12 UNK        -0.2268 
     71 C71        32.3676   23.9243    4.6601 C.3       12 UNK         0.0203 
     72 H72        26.6602   21.9971    1.4011 H         1 UNK         0.0888 
     73 H73        26.2864   23.6609    0.9251 H         1 UNK         0.0888 
     74 H74        25.5307   22.3052    0.0863 H         1 UNK         0.0888 
     75 H75        28.9265   22.0280    0.9732 H         1 UNK         0.3017 
     76 H76        29.7022   21.6009   -1.7328 H         1 UNK         0.0873 
     77 H77        31.5790   21.9319    0.6486 H         1 UNK         0.0745 
     78 H78        31.9373   21.1538   -0.8672 H         1 UNK         0.0745 
     79 H79        32.3505   19.6513    2.0530 H         1 UNK         0.0705 
     80 H80        30.9788   18.7325    2.6117 H         1 UNK         0.0705 
     81 H81        32.7519   21.7852    3.0126 H         1 UNK         0.1334 
     82 H82        29.8077   23.6690    5.4690 H         1 UNK         0.1417 
     83 H83        28.8067   20.1156    3.2706 H         1 UNK         0.1562 
     84 H84        27.7741   22.1978    6.0667 H         1 UNK         0.0748 
     85 H85        27.2860   20.9497    4.9577 H         1 UNK         0.0748 
     86 H86        27.8426   24.5608    5.6215 H         1 UNK         0.0940 
     87 H87        26.3058   25.2276    5.2248 H         1 UNK         0.0940 
     88 H88        28.5162   24.9673    3.1235 H         1 UNK         0.0703 
     89 H89        27.0422   25.8319    1.7143 H         1 UNK         0.3081 
     90 H90        24.4029   26.4891    1.3682 H         1 UNK         0.0719 
     91 H91        23.3197   28.2245    2.7565 H         1 UNK         0.0809 
     92 H92        24.5587   29.3965    2.3241 H         1 UNK         0.0809 
     93 H93        23.4487   28.7840    1.0984 H         1 UNK         0.0809 
     94 H94        26.3780   28.6396    0.7047 H         1 UNK         0.2990 
     95 H95        26.6403   27.5019   -2.5346 H         1 UNK         0.0690 
     96 H96        27.8737   29.4214   -0.4945 H         1 UNK         0.0788 
     97 H97        26.3744   29.7189   -1.3717 H         1 UNK         0.0788 
     98 H98        27.8908   29.5863   -2.2411 H         1 UNK         0.0788 
     99 H99        28.6928   26.6644   -2.5270 H         1 UNK         0.2993 
    100 H100       30.7348   26.0756   -1.9603 H         1 UNK         0.0949 
    101 H101       31.5143   26.5049    0.9830 H         1 UNK         0.0767 
    102 H102       32.6168   25.9858   -0.2910 H         1 UNK         0.0767 
    103 H103       31.8831   27.5813   -0.3525 H         1 UNK         0.0767 
    104 H104       29.8139   24.4204    0.3326 H         1 UNK         0.3013 
    105 H105       28.6580   27.5928    2.3854 H         1 UNK         0.3121 
    106 H106       30.8262   28.6481    3.5686 H         1 UNK         0.0774 
    107 H107       29.8930   30.7096    4.7797 H         1 UNK         0.0815 
    108 H108       28.3173   29.9281    4.8102 H         1 UNK         0.0815 
    109 H109       29.6798   29.2276    5.6850 H         1 UNK         0.0815 
    110 H110       31.5253   30.0904    1.9978 H         1 UNK         0.2987 
    111 H111       29.6584   30.9841   -0.1200 H         1 UNK         0.0949 
    112 H112       31.7726   31.6447   -1.2585 H         1 UNK         0.0806 
    113 H113       32.7094   31.1342    0.1393 H         1 UNK         0.0806 
    114 H114       31.8058   29.9504   -0.8046 H         1 UNK         0.0806 
    115 H115       28.7309   32.1008    1.9173 H         1 UNK         0.3010 
    116 H116       28.0576   33.8951    2.9850 H         1 UNK         0.0829 
    117 H117       28.0546   35.1025    0.8281 H         1 UNK         0.0813 
    118 H118       28.4941   36.1854    2.1384 H         1 UNK         0.0813 
    119 H119       29.7344   35.5831    1.0520 H         1 UNK         0.0813 
    120 H120       31.5343   34.4597    2.3448 H         1 UNK         0.3038 
    121 H121       31.9630   35.7163    4.9504 H         1 UNK         0.0769 
    122 H122       33.1862   36.5282    2.9632 H         1 UNK         0.0811 
    123 H123       34.3221   35.9055    4.1484 H         1 UNK         0.0811 
    124 H124       33.9294   34.9473    2.7269 H         1 UNK         0.0811 
    125 H125       32.9029   32.5856    3.4137 H         1 UNK         0.3204 
    126 H126       33.0900   31.1743    5.8932 H         1 UNK         0.0748 
    127 H127       35.2979   32.3770    6.0493 H         1 UNK         0.0771 
    128 H128       35.5728   30.6804    5.7118 H         1 UNK         0.0771 
    129 H129       35.7118   31.8601    4.4165 H         1 UNK         0.0771 
    130 H130       33.8822   28.9093    5.4281 H         1 UNK         0.2980 
    131 H131       32.8444   27.9547    2.8705 H         1 UNK         0.0545 
    132 H132       35.8076   26.5353    1.3936 H         1 UNK         0.3459 
    133 H133       34.1275   26.1587    1.6855 H         1 UNK         0.3459 
    134 H134       34.0650   26.1034    4.9538 H         1 UNK         0.0616 
    135 H135       32.5526   26.8860    5.3262 H         1 UNK         0.0616 
    136 H136       33.3865   23.5353    4.6310 H         1 UNK         0.0634 
    137 H137       32.1834   24.2410    5.6881 H         1 UNK         0.0634 
@<TRIPOS>BOND
     1    1    2 1    
     2    1   72 1    
     3    1   73 1    
     4    1   74 1    
     5    2    3 2    
     6    2    4 am   BACKBONE|DICT|INTERRES
     7    4    5 1    
     8    4   75 1    
     9    5    6 1    
    10    5   35 1    
    11    5   76 1    
    12    6    7 1    
    13    6   77 1    
    14    6   78 1    
    15    7    8 1    
    16    8    9 1    
    17    8   79 1    
    18    8   80 1    
    19    9   10 ar   
    20    9   14 ar   
    21   10   11 ar   
    22   10   81 1    
    23   11   12 ar   
    24   11   71 1    
    25   12   13 ar   
    26   12   82 1    
    27   13   14 ar   
    28   13   15 1    
    29   14   83 1    
    30   15   16 1    
    31   15   84 1    
    32   15   85 1    
    33   16   17 1    
    34   17   18 1    
    35   17   86 1    
    36   17   87 1    
    37   18   19 1    
    38   18   37 1    
    39   18   88 1    
    40   19   20 am   BACKBONE|DICT|INTERRES
    41   19   89 1    
    42   20   21 2    
    43   20   22 1    
    44   22   23 1    
    45   22   24 1    
    46   22   90 1    
    47   23   91 1    
    48   23   92 1    
    49   23   93 1    
    50   24   25 am   BACKBONE|DICT|INTERRES
    51   24   94 1    
    52   25   26 2    
    53   25   27 1    
    54   27   28 1    
    55   27   29 1    
    56   27   95 1    
    57   28   96 1    
    58   28   97 1    
    59   28   98 1    
    60   29   30 am   BACKBONE|DICT|INTERRES
    61   29   99 1    
    62   30   31 2    
    63   30   32 1    
    64   32   33 1    
    65   32   34 1    
    66   32  100 1    
    67   33  101 1    
    68   33  102 1    
    69   33  103 1    
    70   34   35 am   BACKBONE|DICT|INTERRES
    71   34  104 1    
    72   35   36 2    
    73   37   38 2    
    74   37   39 am   BACKBONE|DICT|INTERRES
    75   39   40 1    
    76   39  105 1    
    77   40   41 1    
    78   40   42 1    
    79   40  106 1    
    80   41  107 1    
    81   41  108 1    
    82   41  109 1    
    83   42   43 2    
    84   42   44 am   BACKBONE|DICT|INTERRES
    85   44   45 1    
    86   44  110 1    
    87   45   46 1    
    88   45   47 1    
    89   45  111 1    
    90   46  112 1    
    91   46  113 1    
    92   46  114 1    
    93   47   48 2    
    94   47   49 am   BACKBONE|DICT|INTERRES
    95   49   50 1    
    96   49  115 1    
    97   50   51 1    
    98   50   52 1    
    99   50  116 1    
   100   51  117 1    
   101   51  118 1    
   102   51  119 1    
   103   52   53 2    
   104   52   54 am   BACKBONE|DICT|INTERRES
   105   54   55 1    
   106   54  120 1    
   107   55   56 1    
   108   55   57 1    
   109   55  121 1    
   110   56  122 1    
   111   56  123 1    
   112   56  124 1    
   113   57   58 2    
   114   57   59 am   BACKBONE|DICT|INTERRES
   115   59   60 1    
   116   59  125 1    
   117   60   61 1    
   118   60   62 1    
   119   60  126 1    
   120   61  127 1    
   121   61  128 1    
   122   61  129 1    
   123   62   63 2    
   124   62   64 am   BACKBONE|DICT|INTERRES
   125   64   65 1    
   126   64  130 1    
   127   65   66 1    
   128   65   69 1    
   129   65  131 1    
   130   66   67 am   BACKBONE|DICT|INTERRES
   131   66   68 2    
   132   67  132 1    
   133   67  133 1    
   134   69   70 1    
   135   69  134 1    
   136   69  135 1    
   137   70   71 1    
   138   71  136 1    
   139   71  137 1    
@<TRIPOS>SUBSTRUCTURE
     1 UNK         1 GROUP             0       ****    0 ROOT    
