@<TRIPOS>MOLECULE
3R136
137   139    1
SMALL
USER_CHARGES


@<TRIPOS>ATOM
      1 CA         29.0806   19.2321   -0.9770 C.3       0 UNK        -0.1979 
      2 C          29.1397   20.6889   -1.4123 C.2       0 UNK         0.4864 
      3 O          28.7905   21.0002   -2.5516 O.2       0 UNK        -0.5359 
      4 N          29.5818   21.5799   -0.5137 N.am      1 UNK        -0.4318 
      5 CA         29.7045   23.0254   -0.7497 C.3       1 UNK         0.0824 
      6 C6         30.5396   23.7247    0.3495 C.3       12 UNK        -0.0944 
      7 S7         32.2514   23.0955    0.4490 S.3       12 UNK        -0.2672 
      8 C8         32.2449   22.1434    2.0034 C.3       12 UNK         0.0333 
      9 C9         32.0889   23.0413    3.2223 C.ar      12 UNK        -0.0807 
     10 C10        33.1969   23.7051    3.7577 C.ar      12 UNK        -0.0894 
     11 C11        33.0563   24.5389    4.8721 C.ar      12 UNK        -0.0804 
     12 C12        31.7915   24.7095    5.4470 C.ar      12 UNK        -0.0824 
     13 C13        30.6780   24.0429    4.9243 C.ar      12 UNK        -0.0762 
     14 C14        30.8370   23.2001    3.8226 C.ar      12 UNK        -0.0782 
     15 C15        29.3063   24.2042    5.5641 C.3       12 UNK         0.0230 
     16 S16        28.5979   25.8581    5.2927 S.3       12 UNK        -0.2608 
     17 C17        28.2066   25.8707    3.5052 C.3       12 UNK        -0.0989 
     18 CA         28.3712   27.2861    2.8947 C.3       5 UNK         0.0716 
     19 N          28.4455   27.2748    1.4289 N.am      5 UNK        -0.4135 
     20 C          28.9143   28.2985    0.6951 C.2       4 UNK         0.5031 
     21 O          29.3979   29.3190    1.1819 O.2       4 UNK        -0.5229 
     22 CA         28.7730   28.2079   -0.8346 C.3       4 UNK         0.0329 
     23 CB         29.9974   27.5382   -1.4746 C.3       4 UNK        -0.2001 
     24 N          27.5442   27.5259   -1.2465 N.am      4 UNK        -0.4303 
     25 C          26.3242   28.0614   -1.0877 C.2       3 UNK         0.5044 
     26 O          26.1376   29.1954   -0.6496 O.2       3 UNK        -0.5152 
     27 CA         25.1016   27.1883   -1.4217 C.3       3 UNK         0.0319 
     28 CB         24.6315   27.4551   -2.8599 C.3       3 UNK        -0.2001 
     29 N          25.3146   25.7508   -1.2414 N.am      3 UNK        -0.4354 
     30 C          25.7023   25.1454   -0.1098 C.2       2 UNK         0.4964 
     31 O          25.9378   25.7432    0.9424 O.2       2 UNK        -0.5047 
     32 CA         25.9113   23.6199   -0.1748 C.3       2 UNK         0.0288 
     33 CB         25.2222   22.9473   -1.3842 C.3       2 UNK        -0.2113 
     34 N          27.3287   23.2356   -0.1417 N.am      2 UNK        -0.4145 
     35 C          28.3304   23.7126   -0.9023 C.2       1 UNK         0.5006 
     36 O          28.2107   24.6423   -1.7030 O.2       1 UNK        -0.5103 
     37 C          27.2857   28.2680    3.3839 C.2       5 UNK         0.5055 
     38 O          27.5198   28.9939    4.3515 O.2       5 UNK        -0.5220 
     39 N          26.1424   28.3172    2.6794 N.am      6 UNK        -0.4450 
     40 CA         25.0777   29.3016    2.9103 C.3       6 UNK         0.0367 
     41 CB         23.8590   28.9832    2.0306 C.3       6 UNK        -0.1929 
     42 C          25.5560   30.7504    2.6939 C.2       6 UNK         0.5070 
     43 O          25.1990   31.6301    3.4767 O.2       6 UNK        -0.5237 
     44 N          26.4246   30.9610    1.6953 N.am      7 UNK        -0.4739 
     45 CA         27.1509   32.2075    1.4278 C.3       7 UNK         0.0276 
     46 CB         27.5306   32.2477   -0.0639 C.3       7 UNK        -0.1927 
     47 C          28.3755   32.4101    2.3524 C.2       7 UNK         0.5013 
     48 O          29.4192   32.8773    1.8944 O.2       7 UNK        -0.5193 
     49 N          28.2224   32.0670    3.6390 N.am      8 UNK        -0.4253 
     50 CA         29.1595   32.2354    4.7579 C.3       8 UNK         0.0242 
     51 CB         29.5072   33.7247    4.9699 C.3       8 UNK        -0.2000 
     52 C          30.4230   31.3514    4.7291 C.2       8 UNK         0.4948 
     53 O          31.2658   31.5125    5.6152 O.2       8 UNK        -0.5275 
     54 N          30.5445   30.4261    3.7650 N.am      9 UNK        -0.4246 
     55 CA         31.6115   29.4271    3.5937 C.3       9 UNK         0.0261 
     56 CB         31.7017   28.4849    4.8122 C.3       9 UNK        -0.1959 
     57 C          32.9846   30.0159    3.2265 C.2       9 UNK         0.5033 
     58 O          33.5549   29.6171    2.2105 O.2       9 UNK        -0.5390 
     59 N          33.4887   30.9384    4.0586 N.am      10 UNK        -0.4215 
     60 CA         34.7849   31.6258    3.9696 C.3       10 UNK         0.0240 
     61 CB         34.8044   32.5884    2.7629 C.3       10 UNK        -0.1982 
     62 C          35.9999   30.6719    3.9942 C.2       10 UNK         0.4970 
     63 O          37.0350   30.9818    3.4006 O.2       10 UNK        -0.4916 
     64 N          35.8510   29.5294    4.6765 N.am      11 UNK        -0.4279 
     65 CA         36.8780   28.4903    4.8325 C.3       11 UNK         0.1003 
     66 C          38.0840   28.9645    5.6889 C.2       11 UNK         0.5709 
     67 N          39.2818   28.4753    5.3978 N.am      11 UNK        -0.7358 
     68 O          37.9381   29.7358    6.6362 O.2       11 UNK        -0.4999 
     69 C69        36.2748   27.1837    5.4103 C.3       12 UNK        -0.0954 
     70 S70        34.9554   26.4962    4.3568 S.3       12 UNK        -0.2268 
     71 C71        34.2752   25.2291    5.4700 C.3       12 UNK         0.0203 
     72 H72        28.0577   18.8623   -1.0435 H         1 UNK         0.0888 
     73 H73        29.7069   18.6212   -1.6267 H         1 UNK         0.0888 
     74 H74        29.4240   19.0973    0.0485 H         1 UNK         0.0888 
     75 H75        29.8815   21.2553    0.3934 H         1 UNK         0.3017 
     76 H76        30.2260   23.1570   -1.7006 H         1 UNK         0.0873 
     77 H77        30.0428   23.6359    1.3132 H         1 UNK         0.0745 
     78 H78        30.6121   24.7949    0.1581 H         1 UNK         0.0745 
     79 H79        33.1826   21.5905    2.0782 H         1 UNK         0.0705 
     80 H80        31.4544   21.3926    1.9720 H         1 UNK         0.0705 
     81 H81        34.1706   23.5772    3.3041 H         1 UNK         0.1334 
     82 H82        31.6703   25.3545    6.3067 H         1 UNK         0.1417 
     83 H83        29.9807   22.6707    3.4281 H         1 UNK         0.1562 
     84 H84        29.3951   24.0350    6.6381 H         1 UNK         0.0748 
     85 H85        28.6075   23.4513    5.1957 H         1 UNK         0.0748 
     86 H86        27.1973   25.4835    3.3528 H         1 UNK         0.0940 
     87 H87        28.8778   25.1772    2.9985 H         1 UNK         0.0940 
     88 H88        29.3272   27.6729    3.2462 H         1 UNK         0.0703 
     89 H89        27.9689   26.5154    0.9606 H         1 UNK         0.3081 
     90 H90        28.7302   29.2309   -1.2144 H         1 UNK         0.0719 
     91 H91        29.9502   27.5892   -2.5624 H         1 UNK         0.0809 
     92 H92        30.9193   28.0337   -1.1666 H         1 UNK         0.0809 
     93 H93        30.0809   26.4905   -1.1964 H         1 UNK         0.0809 
     94 H94        27.6317   26.5736   -1.5904 H         1 UNK         0.2990 
     95 H95        24.2988   27.4799   -0.7427 H         1 UNK         0.0690 
     96 H96        25.3792   27.1477   -3.5924 H         1 UNK         0.0788 
     97 H97        24.4390   28.5177   -3.0167 H         1 UNK         0.0788 
     98 H98        23.7050   26.9247   -3.0807 H         1 UNK         0.0788 
     99 H99        25.1853   25.1720   -2.0587 H         1 UNK         0.2993 
    100 H100       25.4548   23.2185    0.7315 H         1 UNK         0.0949 
    101 H101       25.6801   23.2317   -2.3326 H         1 UNK         0.0767 
    102 H102       25.2839   21.8614   -1.3095 H         1 UNK         0.0767 
    103 H103       24.1621   23.2015   -1.4311 H         1 UNK         0.0767 
    104 H104       27.5545   22.4885    0.4991 H         1 UNK         0.3013 
    105 H105       26.0095   27.6539    1.9246 H         1 UNK         0.3121 
    106 H106       24.7724   29.2081    3.9547 H         1 UNK         0.0774 
    107 H107       23.0188   29.6285    2.2903 H         1 UNK         0.0815 
    108 H108       24.0679   29.1412    0.9735 H         1 UNK         0.0815 
    109 H109       23.5288   27.9525    2.1606 H         1 UNK         0.0815 
    110 H110       26.6184   30.1904    1.0638 H         1 UNK         0.2987 
    111 H111       26.4762   33.0449    1.6184 H         1 UNK         0.0949 
    112 H112       28.2501   31.4676   -0.3133 H         1 UNK         0.0806 
    113 H113       26.6563   32.1126   -0.7011 H         1 UNK         0.0806 
    114 H114       27.9801   33.2050   -0.3305 H         1 UNK         0.0806 
    115 H115       27.3250   31.6690    3.8919 H         1 UNK         0.3010 
    116 H116       28.6059   31.9061    5.6385 H         1 UNK         0.0829 
    117 H117       30.0636   33.8703    5.8967 H         1 UNK         0.0813 
    118 H118       30.1232   34.1168    4.1601 H         1 UNK         0.0813 
    119 H119       28.6083   34.3377    5.0364 H         1 UNK         0.0813 
    120 H120       29.8316   30.3996    3.0439 H         1 UNK         0.3038 
    121 H121       31.3134   28.8129    2.7453 H         1 UNK         0.0769 
    122 H122       32.1500   28.9687    5.6801 H         1 UNK         0.0811 
    123 H123       32.3066   27.6111    4.5760 H         1 UNK         0.0811 
    124 H124       30.7194   28.1204    5.1109 H         1 UNK         0.0811 
    125 H125       32.8850   31.2097    4.8351 H         1 UNK         0.3204 
    126 H126       34.8653   32.2318    4.8731 H         1 UNK         0.0748 
    127 H127       35.7021   33.2079    2.7681 H         1 UNK         0.0771 
    128 H128       34.7868   32.0483    1.8156 H         1 UNK         0.0771 
    129 H129       33.9479   33.2624    2.7801 H         1 UNK         0.0771 
    130 H130       34.9728   29.3547    5.1391 H         1 UNK         0.2980 
    131 H131       37.2559   28.2690    3.8321 H         1 UNK         0.0545 
    132 H132       40.0747   28.7594    5.9518 H         1 UNK         0.3459 
    133 H133       39.4109   27.8325    4.6318 H         1 UNK         0.3459 
    134 H134       37.0463   26.4187    5.5164 H         1 UNK         0.0616 
    135 H135       35.8736   27.3604    6.4102 H         1 UNK         0.0616 
    136 H136       34.0213   25.6926    6.4247 H         1 UNK         0.0634 
    137 H137       35.0450   24.4852    5.6803 H         1 UNK         0.0634 
@<TRIPOS>BOND
     1    1    2 1    
     2    1   72 1    
     3    1   73 1    
     4    1   74 1    
     5    2    3 2    
     6    2    4 am   BACKBONE|DICT|INTERRES
     7    4    5 1    
     8    4   75 1    
     9    5    6 1    
    10    5   35 1    
    11    5   76 1    
    12    6    7 1    
    13    6   77 1    
    14    6   78 1    
    15    7    8 1    
    16    8    9 1    
    17    8   79 1    
    18    8   80 1    
    19    9   10 ar   
    20    9   14 ar   
    21   10   11 ar   
    22   10   81 1    
    23   11   12 ar   
    24   11   71 1    
    25   12   13 ar   
    26   12   82 1    
    27   13   14 ar   
    28   13   15 1    
    29   14   83 1    
    30   15   16 1    
    31   15   84 1    
    32   15   85 1    
    33   16   17 1    
    34   17   18 1    
    35   17   86 1    
    36   17   87 1    
    37   18   19 1    
    38   18   37 1    
    39   18   88 1    
    40   19   20 am   BACKBONE|DICT|INTERRES
    41   19   89 1    
    42   20   21 2    
    43   20   22 1    
    44   22   23 1    
    45   22   24 1    
    46   22   90 1    
    47   23   91 1    
    48   23   92 1    
    49   23   93 1    
    50   24   25 am   BACKBONE|DICT|INTERRES
    51   24   94 1    
    52   25   26 2    
    53   25   27 1    
    54   27   28 1    
    55   27   29 1    
    56   27   95 1    
    57   28   96 1    
    58   28   97 1    
    59   28   98 1    
    60   29   30 am   BACKBONE|DICT|INTERRES
    61   29   99 1    
    62   30   31 2    
    63   30   32 1    
    64   32   33 1    
    65   32   34 1    
    66   32  100 1    
    67   33  101 1    
    68   33  102 1    
    69   33  103 1    
    70   34   35 am   BACKBONE|DICT|INTERRES
    71   34  104 1    
    72   35   36 2    
    73   37   38 2    
    74   37   39 am   BACKBONE|DICT|INTERRES
    75   39   40 1    
    76   39  105 1    
    77   40   41 1    
    78   40   42 1    
    79   40  106 1    
    80   41  107 1    
    81   41  108 1    
    82   41  109 1    
    83   42   43 2    
    84   42   44 am   BACKBONE|DICT|INTERRES
    85   44   45 1    
    86   44  110 1    
    87   45   46 1    
    88   45   47 1    
    89   45  111 1    
    90   46  112 1    
    91   46  113 1    
    92   46  114 1    
    93   47   48 2    
    94   47   49 am   BACKBONE|DICT|INTERRES
    95   49   50 1    
    96   49  115 1    
    97   50   51 1    
    98   50   52 1    
    99   50  116 1    
   100   51  117 1    
   101   51  118 1    
   102   51  119 1    
   103   52   53 2    
   104   52   54 am   BACKBONE|DICT|INTERRES
   105   54   55 1    
   106   54  120 1    
   107   55   56 1    
   108   55   57 1    
   109   55  121 1    
   110   56  122 1    
   111   56  123 1    
   112   56  124 1    
   113   57   58 2    
   114   57   59 am   BACKBONE|DICT|INTERRES
   115   59   60 1    
   116   59  125 1    
   117   60   61 1    
   118   60   62 1    
   119   60  126 1    
   120   61  127 1    
   121   61  128 1    
   122   61  129 1    
   123   62   63 2    
   124   62   64 am   BACKBONE|DICT|INTERRES
   125   64   65 1    
   126   64  130 1    
   127   65   66 1    
   128   65   69 1    
   129   65  131 1    
   130   66   67 am   BACKBONE|DICT|INTERRES
   131   66   68 2    
   132   67  132 1    
   133   67  133 1    
   134   69   70 1    
   135   69  134 1    
   136   69  135 1    
   137   70   71 1    
   138   71  136 1    
   139   71  137 1    
@<TRIPOS>SUBSTRUCTURE
     1 UNK         1 GROUP             0       ****    0 ROOT    
