@<TRIPOS>MOLECULE
3R136
137   139    1
SMALL
USER_CHARGES


@<TRIPOS>ATOM
      1 CA         28.3744   22.8499    3.9402 C.3       0 UNK        -0.1979 
      2 C          28.6188   21.8493    2.8224 C.2       0 UNK         0.4864 
      3 O          27.9405   20.8228    2.7675 O.2       0 UNK        -0.5359 
      4 N          29.5621   22.1473    1.9158 N.am      1 UNK        -0.4318 
      5 CA         29.8456   21.3453    0.7138 C.3       1 UNK         0.0824 
      6 C6         31.1905   21.7318    0.0518 C.3       12 UNK        -0.0944 
      7 S7         32.6088   21.3389    1.1308 S.3       12 UNK        -0.2672 
      8 C8         33.3998   22.9640    1.3517 C.3       12 UNK         0.0333 
      9 C9         32.5329   23.9287    2.1478 C.ar      12 UNK        -0.0807 
     10 C10        32.2706   23.6874    3.4986 C.ar      12 UNK        -0.0894 
     11 C11        31.4987   24.5828    4.2433 C.ar      12 UNK        -0.0804 
     12 C12        30.9773   25.7244    3.6227 C.ar      12 UNK        -0.0824 
     13 C13        31.2309   25.9780    2.2697 C.ar      12 UNK        -0.0762 
     14 C14        32.0167   25.0771    1.5421 C.ar      12 UNK        -0.0782 
     15 C15        30.7088   27.2546    1.6158 C.3       12 UNK         0.0230 
     16 S16        29.9604   26.9793   -0.0253 S.3       12 UNK        -0.2608 
     17 C17        28.2722   26.4426    0.4065 C.3       12 UNK        -0.0989 
     18 CA         27.2292   27.5571    0.1345 C.3       5 UNK         0.0716 
     19 N          25.8797   27.0227   -0.0736 N.am      5 UNK        -0.4135 
     20 C          24.8625   27.7370   -0.5850 C.2       4 UNK         0.5031 
     21 O          24.9743   28.9167   -0.9237 O.2       4 UNK        -0.5229 
     22 CA         23.5015   27.0453   -0.8029 C.3       4 UNK         0.0329 
     23 CB         23.0502   27.1804   -2.2689 C.3       4 UNK        -0.2001 
     24 N          23.5107   25.6252   -0.4548 N.am      4 UNK        -0.4303 
     25 C          23.1688   25.1161    0.7354 C.2       3 UNK         0.5044 
     26 O          22.7693   25.7910    1.6846 O.2       3 UNK        -0.5152 
     27 CA         23.3137   23.5903    0.8976 C.3       3 UNK         0.0319 
     28 CB         21.9647   22.8942    0.6549 C.3       3 UNK        -0.2001 
     29 N          24.3332   22.9894    0.0255 N.am      3 UNK        -0.4354 
     30 C          25.6406   23.2715    0.0901 C.2       2 UNK         0.4964 
     31 O          26.1231   24.1030    0.8643 O.2       2 UNK        -0.5047 
     32 CA         26.5614   22.5451   -0.8945 C.3       2 UNK         0.0288 
     33 CB         26.6981   23.3291   -2.2113 C.3       2 UNK        -0.2113 
     34 N          27.8588   22.4332   -0.2432 N.am      2 UNK        -0.4145 
     35 C          28.6902   21.3881   -0.3127 C.2       1 UNK         0.5006 
     36 O          28.5576   20.4628   -1.1160 O.2       1 UNK        -0.5103 
     37 C          27.2393   28.6266    1.2452 C.2       5 UNK         0.5055 
     38 O          26.8160   28.3445    2.3686 O.2       5 UNK        -0.5220 
     39 N          27.7493   29.8158    0.9132 N.am      6 UNK        -0.4450 
     40 CA         27.9559   30.9479    1.8073 C.3       6 UNK         0.0367 
     41 CB         26.6256   31.6716    2.0865 C.3       6 UNK        -0.1929 
     42 C          28.9628   31.8847    1.1331 C.2       6 UNK         0.5070 
     43 O          28.9568   31.9975   -0.0954 O.2       6 UNK        -0.5237 
     44 N          29.8004   32.5341    1.9438 N.am      7 UNK        -0.4739 
     45 CA         30.8765   33.4438    1.5566 C.3       7 UNK         0.0276 
     46 CB         31.9703   32.7030    0.7551 C.3       7 UNK        -0.1927 
     47 C          31.4739   34.0280    2.8420 C.2       7 UNK         0.5013 
     48 O          31.2642   33.4664    3.9216 O.2       7 UNK        -0.5193 
     49 N          32.2518   35.1096    2.7042 N.am      8 UNK        -0.4253 
     50 CA         32.9554   35.7782    3.8074 C.3       8 UNK         0.0242 
     51 CB         33.5744   37.0880    3.2917 C.3       8 UNK        -0.2000 
     52 C          34.0303   34.9101    4.4926 C.2       8 UNK         0.4948 
     53 O          34.3523   35.1628    5.6543 O.2       8 UNK        -0.5275 
     54 N          34.5526   33.9086    3.7728 N.am      9 UNK        -0.4246 
     55 CA         35.5277   32.9297    4.2546 C.3       9 UNK         0.0261 
     56 CB         36.9000   33.2267    3.6195 C.3       9 UNK        -0.1959 
     57 C          35.0436   31.4937    3.9812 C.2       9 UNK         0.5033 
     58 O          35.8638   30.6182    3.6948 O.2       9 UNK        -0.5390 
     59 N          33.7227   31.2658    4.0587 N.am      10 UNK        -0.4215 
     60 CA         33.1037   29.9458    3.9045 C.3       10 UNK         0.0240 
     61 CB         31.5730   30.0817    3.8935 C.3       10 UNK        -0.1982 
     62 C          33.5343   28.9695    5.0094 C.2       10 UNK         0.4970 
     63 O          33.6354   29.3685    6.1719 O.2       10 UNK        -0.4916 
     64 N          33.7423   27.7073    4.6184 N.am      11 UNK        -0.4279 
     65 CA         34.1325   26.5891    5.4905 C.3       11 UNK         0.1003 
     66 C          35.5822   26.6694    6.0631 C.2       11 UNK         0.5709 
     67 N          36.4360   27.5686    5.5858 N.am      11 UNK        -0.7358 
     68 O          35.9558   25.8840    6.9310 O.2       11 UNK        -0.4999 
     69 C69        33.0486   26.2828    6.5703 C.3       12 UNK        -0.0954 
     70 S70        32.7212   24.4988    6.7431 S.3       12 UNK        -0.2268 
     71 C71        31.2280   24.3057    5.7170 C.3       12 UNK         0.0203 
     72 H72        27.3041   23.0022    4.0775 H         1 UNK         0.0888 
     73 H73        28.7883   22.4782    4.8764 H         1 UNK         0.0888 
     74 H74        28.8181   23.8190    3.7188 H         1 UNK         0.0888 
     75 H75        30.1332   22.9731    2.0369 H         1 UNK         0.3017 
     76 H76        29.9216   20.3030    1.0321 H         1 UNK         0.0873 
     77 H77        31.1990   22.7882   -0.2222 H         1 UNK         0.0745 
     78 H78        31.3349   21.1773   -0.8777 H         1 UNK         0.0745 
     79 H79        33.6514   23.3758    0.3729 H         1 UNK         0.0705 
     80 H80        34.3464   22.8244    1.8758 H         1 UNK         0.0705 
     81 H81        32.6756   22.8039    3.9738 H         1 UNK         0.1334 
     82 H82        30.3843   26.4218    4.1987 H         1 UNK         0.1417 
     83 H83        32.2332   25.2767    0.5012 H         1 UNK         0.1562 
     84 H84        31.5446   27.9456    1.4995 H         1 UNK         0.0748 
     85 H85        29.9837   27.7557    2.2583 H         1 UNK         0.0748 
     86 H86        28.2253   26.0783    1.4353 H         1 UNK         0.0940 
     87 H87        28.0624   25.5783   -0.2233 H         1 UNK         0.0940 
     88 H88        27.5031   28.0393   -0.8073 H         1 UNK         0.0703 
     89 H89        25.7184   26.0735    0.2416 H         1 UNK         0.3081 
     90 H90        22.7746   27.5693   -0.1786 H         1 UNK         0.0719 
     91 H91        22.9633   28.2283   -2.5597 H         1 UNK         0.0809 
     92 H92        23.7562   26.7097   -2.9544 H         1 UNK         0.0809 
     93 H93        22.0730   26.7237   -2.4267 H         1 UNK         0.0809 
     94 H94        23.8235   24.9861   -1.1711 H         1 UNK         0.2990 
     95 H95        23.6125   23.4034    1.9314 H         1 UNK         0.0690 
     96 H96        22.0265   21.8250    0.8588 H         1 UNK         0.0788 
     97 H97        21.6225   23.0225   -0.3729 H         1 UNK         0.0788 
     98 H98        21.1920   23.3017    1.3086 H         1 UNK         0.0788 
     99 H99        24.0101   22.3053   -0.6445 H         1 UNK         0.2993 
    100 H100       26.1565   21.5498   -1.0916 H         1 UNK         0.0949 
    101 H101       27.0694   24.3411   -2.0468 H         1 UNK         0.0767 
    102 H102       27.3844   22.8305   -2.8961 H         1 UNK         0.0767 
    103 H103       25.7369   23.4112   -2.7200 H         1 UNK         0.0767 
    104 H104       28.0075   23.1211    0.4842 H         1 UNK         0.3013 
    105 H105       28.0891   29.9776   -0.0280 H         1 UNK         0.3121 
    106 H106       28.3807   30.5836    2.7455 H         1 UNK         0.0774 
    107 H107       26.7799   32.5387    2.7298 H         1 UNK         0.0815 
    108 H108       26.1608   32.0251    1.1652 H         1 UNK         0.0815 
    109 H109       25.9133   31.0185    2.5906 H         1 UNK         0.0815 
    110 H110       29.7293   32.4166    2.9488 H         1 UNK         0.2987 
    111 H111       30.4551   34.2547    0.9588 H         1 UNK         0.0949 
    112 H112       31.5832   32.2933   -0.1774 H         1 UNK         0.0806 
    113 H113       32.7854   33.3748    0.4839 H         1 UNK         0.0806 
    114 H114       32.4036   31.8799    1.3239 H         1 UNK         0.0806 
    115 H115       32.3758   35.5070    1.7834 H         1 UNK         0.3010 
    116 H116       32.2130   36.0279    4.5686 H         1 UNK         0.0829 
    117 H117       34.3121   36.9062    2.5090 H         1 UNK         0.0813 
    118 H118       34.0797   37.6243    4.0964 H         1 UNK         0.0813 
    119 H119       32.8133   37.7568    2.8893 H         1 UNK         0.0813 
    120 H120       34.2257   33.7817    2.8255 H         1 UNK         0.3038 
    121 H121       35.6336   33.0065    5.3388 H         1 UNK         0.0769 
    122 H122       37.2273   34.2424    3.8424 H         1 UNK         0.0811 
    123 H123       36.8747   33.1125    2.5352 H         1 UNK         0.0811 
    124 H124       37.6659   32.5513    4.0029 H         1 UNK         0.0811 
    125 H125       33.1111   32.0261    4.3276 H         1 UNK         0.3204 
    126 H126       33.4197   29.5405    2.9406 H         1 UNK         0.0748 
    127 H127       31.0858   29.1087    3.9619 H         1 UNK         0.0771 
    128 H128       31.2124   30.6813    4.7303 H         1 UNK         0.0771 
    129 H129       31.2320   30.5428    2.9701 H         1 UNK         0.0771 
    130 H130       33.6458   27.4740    3.6411 H         1 UNK         0.2980 
    131 H131       34.1725   25.7435    4.8034 H         1 UNK         0.0545 
    132 H132       37.3726   27.6016    5.9557 H         1 UNK         0.3459 
    133 H133       36.1482   28.2319    4.8820 H         1 UNK         0.3459 
    134 H134       32.1037   26.7700    6.3256 H         1 UNK         0.0616 
    135 H135       33.3316   26.6874    7.5437 H         1 UNK         0.0616 
    136 H136       30.4377   24.9535    6.0994 H         1 UNK         0.0634 
    137 H137       30.8664   23.2830    5.8280 H         1 UNK         0.0634 
@<TRIPOS>BOND
     1    1    2 1    
     2    1   72 1    
     3    1   73 1    
     4    1   74 1    
     5    2    3 2    
     6    2    4 am   BACKBONE|DICT|INTERRES
     7    4    5 1    
     8    4   75 1    
     9    5    6 1    
    10    5   35 1    
    11    5   76 1    
    12    6    7 1    
    13    6   77 1    
    14    6   78 1    
    15    7    8 1    
    16    8    9 1    
    17    8   79 1    
    18    8   80 1    
    19    9   10 ar   
    20    9   14 ar   
    21   10   11 ar   
    22   10   81 1    
    23   11   12 ar   
    24   11   71 1    
    25   12   13 ar   
    26   12   82 1    
    27   13   14 ar   
    28   13   15 1    
    29   14   83 1    
    30   15   16 1    
    31   15   84 1    
    32   15   85 1    
    33   16   17 1    
    34   17   18 1    
    35   17   86 1    
    36   17   87 1    
    37   18   19 1    
    38   18   37 1    
    39   18   88 1    
    40   19   20 am   BACKBONE|DICT|INTERRES
    41   19   89 1    
    42   20   21 2    
    43   20   22 1    
    44   22   23 1    
    45   22   24 1    
    46   22   90 1    
    47   23   91 1    
    48   23   92 1    
    49   23   93 1    
    50   24   25 am   BACKBONE|DICT|INTERRES
    51   24   94 1    
    52   25   26 2    
    53   25   27 1    
    54   27   28 1    
    55   27   29 1    
    56   27   95 1    
    57   28   96 1    
    58   28   97 1    
    59   28   98 1    
    60   29   30 am   BACKBONE|DICT|INTERRES
    61   29   99 1    
    62   30   31 2    
    63   30   32 1    
    64   32   33 1    
    65   32   34 1    
    66   32  100 1    
    67   33  101 1    
    68   33  102 1    
    69   33  103 1    
    70   34   35 am   BACKBONE|DICT|INTERRES
    71   34  104 1    
    72   35   36 2    
    73   37   38 2    
    74   37   39 am   BACKBONE|DICT|INTERRES
    75   39   40 1    
    76   39  105 1    
    77   40   41 1    
    78   40   42 1    
    79   40  106 1    
    80   41  107 1    
    81   41  108 1    
    82   41  109 1    
    83   42   43 2    
    84   42   44 am   BACKBONE|DICT|INTERRES
    85   44   45 1    
    86   44  110 1    
    87   45   46 1    
    88   45   47 1    
    89   45  111 1    
    90   46  112 1    
    91   46  113 1    
    92   46  114 1    
    93   47   48 2    
    94   47   49 am   BACKBONE|DICT|INTERRES
    95   49   50 1    
    96   49  115 1    
    97   50   51 1    
    98   50   52 1    
    99   50  116 1    
   100   51  117 1    
   101   51  118 1    
   102   51  119 1    
   103   52   53 2    
   104   52   54 am   BACKBONE|DICT|INTERRES
   105   54   55 1    
   106   54  120 1    
   107   55   56 1    
   108   55   57 1    
   109   55  121 1    
   110   56  122 1    
   111   56  123 1    
   112   56  124 1    
   113   57   58 2    
   114   57   59 am   BACKBONE|DICT|INTERRES
   115   59   60 1    
   116   59  125 1    
   117   60   61 1    
   118   60   62 1    
   119   60  126 1    
   120   61  127 1    
   121   61  128 1    
   122   61  129 1    
   123   62   63 2    
   124   62   64 am   BACKBONE|DICT|INTERRES
   125   64   65 1    
   126   64  130 1    
   127   65   66 1    
   128   65   69 1    
   129   65  131 1    
   130   66   67 am   BACKBONE|DICT|INTERRES
   131   66   68 2    
   132   67  132 1    
   133   67  133 1    
   134   69   70 1    
   135   69  134 1    
   136   69  135 1    
   137   70   71 1    
   138   71  136 1    
   139   71  137 1    
@<TRIPOS>SUBSTRUCTURE
     1 UNK         1 GROUP             0       ****    0 ROOT    
