@<TRIPOS>MOLECULE
3R136
137   139    1
SMALL
USER_CHARGES


@<TRIPOS>ATOM
      1 CA         30.5975   25.9506    2.8413 C.3       0 UNK        -0.1979 
      2 C          29.6999   24.7514    3.0907 C.2       0 UNK         0.4864 
      3 O          28.6008   24.9227    3.6154 O.2       0 UNK        -0.5359 
      4 N          30.1383   23.5427    2.7083 N.am      1 UNK        -0.4318 
      5 CA         29.4261   22.2778    2.9576 C.3       1 UNK         0.0824 
      6 C6         30.2518   21.0271    2.5665 C.3       12 UNK        -0.0944 
      7 S7         31.9196   20.9944    3.3060 S.3       12 UNK        -0.2672 
      8 C8         32.9782   20.9683    1.8245 C.3       12 UNK         0.0333 
      9 C9         33.0849   22.3428    1.1807 C.ar      12 UNK        -0.0807 
     10 C10        34.0745   23.2333    1.6041 C.ar      12 UNK        -0.0894 
     11 C11        34.1994   24.4923    1.0104 C.ar      12 UNK        -0.0804 
     12 C12        33.3211   24.8605   -0.0134 C.ar      12 UNK        -0.0824 
     13 C13        32.3206   23.9809   -0.4409 C.ar      12 UNK        -0.0762 
     14 C14        32.2150   22.7196    0.1527 C.ar      12 UNK        -0.0782 
     15 C15        31.3574   24.3787   -1.5503 C.3       12 UNK         0.0230 
     16 S16        29.9020   25.2455   -0.8837 S.3       12 UNK        -0.2608 
     17 C17        30.5118   26.9622   -0.7624 C.3       12 UNK        -0.0989 
     18 CA         29.6350   27.9858   -1.5258 C.3       5 UNK         0.0716 
     19 N          28.2177   27.8815   -1.1566 N.am      5 UNK        -0.4135 
     20 C          27.2027   28.5684   -1.6997 C.2       4 UNK         0.5031 
     21 O          27.3506   29.4311   -2.5666 O.2       4 UNK        -0.5229 
     22 CA         25.7738   28.2264   -1.2303 C.3       4 UNK         0.0329 
     23 CB         24.9414   27.6696   -2.3972 C.3       4 UNK        -0.2001 
     24 N          25.7093   27.2695   -0.1220 N.am      4 UNK        -0.4303 
     25 C          25.9958   27.5278    1.1582 C.2       3 UNK         0.5044 
     26 O          26.3848   28.6232    1.5550 O.2       3 UNK        -0.5152 
     27 CA         25.8545   26.3725    2.1667 C.3       3 UNK         0.0319 
     28 CB         24.4125   26.2727    2.7000 C.3       3 UNK        -0.2001 
     29 N          26.3502   25.0702    1.6924 N.am      3 UNK        -0.4354 
     30 C          25.8703   24.2837    0.7135 C.2       2 UNK         0.4964 
     31 O          24.8822   24.5730    0.0379 O.2       2 UNK        -0.5047 
     32 CA         26.6255   22.9791    0.3926 C.3       2 UNK         0.0288 
     33 CB         26.9137   22.8625   -1.1155 C.3       2 UNK        -0.2113 
     34 N          27.8876   22.8621    1.1274 N.am      2 UNK        -0.4145 
     35 C          28.0353   22.2109    2.2904 C.2       1 UNK         0.5006 
     36 O          27.1294   21.5873    2.8459 O.2       1 UNK        -0.5103 
     37 C          30.2269   29.3977   -1.3288 C.2       5 UNK         0.5055 
     38 O          31.1007   29.7979   -2.0999 O.2       5 UNK        -0.5220 
     39 N          29.7693   30.1083   -0.2923 N.am      6 UNK        -0.4450 
     40 CA         30.2321   31.4322    0.1094 C.3       6 UNK         0.0367 
     41 CB         31.5804   31.3155    0.8495 C.3       6 UNK        -0.1929 
     42 C          29.1636   32.0617    1.0089 C.2       6 UNK         0.5070 
     43 O          28.2759   31.3537    1.4860 O.2       6 UNK        -0.5237 
     44 N          29.2801   33.3710    1.2434 N.am      7 UNK        -0.4739 
     45 CA         28.4475   34.1274    2.1734 C.3       7 UNK         0.0276 
     46 CB         27.4995   35.0420    1.3769 C.3       7 UNK        -0.1927 
     47 C          29.3880   34.9416    3.0786 C.2       7 UNK         0.5013 
     48 O          29.9803   35.8999    2.5831 O.2       7 UNK        -0.5193 
     49 N          29.5663   34.6073    4.3654 N.am      8 UNK        -0.4253 
     50 CA         29.0852   33.4222    5.0845 C.3       8 UNK         0.0242 
     51 CB         29.3224   33.6439    6.5875 C.3       8 UNK        -0.2000 
     52 C          29.7991   32.1361    4.6299 C.2       8 UNK         0.4948 
     53 O          30.8889   32.2046    4.0555 O.2       8 UNK        -0.5275 
     54 N          29.1952   30.9802    4.9361 N.am      9 UNK        -0.4246 
     55 CA         29.7141   29.6365    4.6518 C.3       9 UNK         0.0261 
     56 CB         28.5549   28.6284    4.7628 C.3       9 UNK        -0.1959 
     57 C          30.9080   29.2689    5.5598 C.2       9 UNK         0.5033 
     58 O          30.8168   28.3435    6.3695 O.2       9 UNK        -0.5390 
     59 N          32.0044   30.0237    5.4135 N.am      10 UNK        -0.4215 
     60 CA         33.2134   30.0068    6.2445 C.3       10 UNK         0.0240 
     61 CB         34.1812   31.0838    5.7285 C.3       10 UNK        -0.1982 
     62 C          33.9348   28.6519    6.3593 C.2       10 UNK         0.4970 
     63 O          34.6669   28.4527    7.3302 O.2       10 UNK        -0.4916 
     64 N          33.7225   27.7506    5.3920 N.am      11 UNK        -0.4279 
     65 CA         34.2392   26.3730    5.4140 C.3       11 UNK         0.1003 
     66 C          33.6028   25.4725    6.5149 C.2       11 UNK         0.5709 
     67 N          32.4559   25.8283    7.0858 N.am      11 UNK        -0.7358 
     68 O          34.1636   24.4343    6.8569 O.2       11 UNK        -0.4999 
     69 C69        34.1413   25.6723    4.0326 C.3       12 UNK        -0.0954 
     70 S70        34.6680   26.7040    2.6213 S.3       12 UNK        -0.2268 
     71 C71        35.2950   25.4466    1.4654 C.3       12 UNK         0.0203 
     72 H72        31.0237   26.2959    3.7820 H         1 UNK         0.0888 
     73 H73        31.4076   25.7179    2.1501 H         1 UNK         0.0888 
     74 H74        30.0109   26.7679    2.4256 H         1 UNK         0.0888 
     75 H75        31.0533   23.4501    2.2875 H         1 UNK         0.3017 
     76 H76        29.2536   22.2320    4.0352 H         1 UNK         0.0873 
     77 H77        30.3253   20.9353    1.4826 H         1 UNK         0.0745 
     78 H78        29.7369   20.1240    2.9004 H         1 UNK         0.0745 
     79 H79        33.9717   20.6223    2.1141 H         1 UNK         0.0705 
     80 H80        32.6030   20.2340    1.1099 H         1 UNK         0.0705 
     81 H81        34.7526   22.9416    2.3946 H         1 UNK         0.1334 
     82 H82        33.4207   25.8332   -0.4737 H         1 UNK         0.1417 
     83 H83        31.4555   22.0316   -0.1918 H         1 UNK         0.1562 
     84 H84        31.0163   23.4886   -2.0811 H         1 UNK         0.0748 
     85 H85        31.8601   24.9954   -2.2967 H         1 UNK         0.0748 
     86 H86        31.5343   27.0105   -1.1387 H         1 UNK         0.0940 
     87 H87        30.5769   27.2270    0.2916 H         1 UNK         0.0940 
     88 H88        29.6980   27.7578   -2.5919 H         1 UNK         0.0703 
     89 H89        27.9927   27.1731   -0.4752 H         1 UNK         0.3081 
     90 H90        25.3163   29.1604   -0.8988 H         1 UNK         0.0719 
     91 H91        24.9179   28.3691   -3.2337 H         1 UNK         0.0809 
     92 H92        25.3495   26.7292   -2.7689 H         1 UNK         0.0809 
     93 H93        23.9084   27.4914   -2.0985 H         1 UNK         0.0809 
     94 H94        25.3733   26.3337   -0.3361 H         1 UNK         0.2990 
     95 H95        26.4925   26.6285    3.0141 H         1 UNK         0.0690 
     96 H96        24.3269   25.5031    3.4672 H         1 UNK         0.0788 
     97 H97        23.6972   26.0411    1.9105 H         1 UNK         0.0788 
     98 H98        24.1006   27.2156    3.1509 H         1 UNK         0.0788 
     99 H99        27.1685   24.7459    2.1986 H         1 UNK         0.2993 
    100 H100       25.9620   22.1565    0.6676 H         1 UNK         0.0949 
    101 H101       27.4690   21.9531   -1.3453 H         1 UNK         0.0767 
    102 H102       25.9868   22.8252   -1.6891 H         1 UNK         0.0767 
    103 H103       27.4881   23.7103   -1.4877 H         1 UNK         0.0767 
    104 H104       28.6807   23.3609    0.7472 H         1 UNK         0.3013 
    105 H105       28.9967   29.7603    0.2655 H         1 UNK         0.3121 
    106 H106       30.3474   32.0580   -0.7785 H         1 UNK         0.0774 
    107 H107       31.9317   32.2902    1.1907 H         1 UNK         0.0815 
    108 H108       31.4993   30.6754    1.7289 H         1 UNK         0.0815 
    109 H109       32.3572   30.9024    0.2062 H         1 UNK         0.0815 
    110 H110       30.0651   33.8766    0.8568 H         1 UNK         0.2987 
    111 H111       27.8252   33.4598    2.7664 H         1 UNK         0.0949 
    112 H112       28.0428   35.7269    0.7254 H         1 UNK         0.0806 
    113 H113       26.8217   34.4585    0.7541 H         1 UNK         0.0806 
    114 H114       26.8866   35.6456    2.0473 H         1 UNK         0.0806 
    115 H115       30.2149   35.1758    4.8880 H         1 UNK         0.3010 
    116 H116       28.0114   33.3137    4.9283 H         1 UNK         0.0829 
    117 H117       28.8161   34.5423    6.9415 H         1 UNK         0.0813 
    118 H118       28.9405   32.8095    7.1767 H         1 UNK         0.0813 
    119 H119       30.3836   33.7439    6.8188 H         1 UNK         0.0813 
    120 H120       28.3202   31.0139    5.4389 H         1 UNK         0.3038 
    121 H121       30.0708   29.6166    3.6195 H         1 UNK         0.0769 
    122 H122       28.1149   28.6261    5.7606 H         1 UNK         0.0811 
    123 H123       28.8921   27.6123    4.5580 H         1 UNK         0.0811 
    124 H124       27.7648   28.8549    4.0463 H         1 UNK         0.0811 
    125 H125       31.9210   30.8006    4.7601 H         1 UNK         0.3204 
    126 H126       32.9045   30.2832    7.2542 H         1 UNK         0.0748 
    127 H127       35.0808   31.1321    6.3440 H         1 UNK         0.0771 
    128 H128       34.4967   30.8827    4.7042 H         1 UNK         0.0771 
    129 H129       33.7228   32.0727    5.7503 H         1 UNK         0.0771 
    130 H130       33.1260   27.9950    4.6172 H         1 UNK         0.2980 
    131 H131       35.3007   26.4450    5.6585 H         1 UNK         0.0545 
    132 H132       31.9811   26.6834    6.8171 H         1 UNK         0.3459 
    133 H133       32.0588   25.2382    7.7987 H         1 UNK         0.3459 
    134 H134       34.7554   24.7708    4.0494 H         1 UNK         0.0616 
    135 H135       33.1254   25.3320    3.8381 H         1 UNK         0.0616 
    136 H136       36.1138   24.8995    1.9354 H         1 UNK         0.0634 
    137 H137       35.7245   25.9499    0.5980 H         1 UNK         0.0634 
@<TRIPOS>BOND
     1    1    2 1    
     2    1   72 1    
     3    1   73 1    
     4    1   74 1    
     5    2    3 2    
     6    2    4 am   BACKBONE|DICT|INTERRES
     7    4    5 1    
     8    4   75 1    
     9    5    6 1    
    10    5   35 1    
    11    5   76 1    
    12    6    7 1    
    13    6   77 1    
    14    6   78 1    
    15    7    8 1    
    16    8    9 1    
    17    8   79 1    
    18    8   80 1    
    19    9   10 ar   
    20    9   14 ar   
    21   10   11 ar   
    22   10   81 1    
    23   11   12 ar   
    24   11   71 1    
    25   12   13 ar   
    26   12   82 1    
    27   13   14 ar   
    28   13   15 1    
    29   14   83 1    
    30   15   16 1    
    31   15   84 1    
    32   15   85 1    
    33   16   17 1    
    34   17   18 1    
    35   17   86 1    
    36   17   87 1    
    37   18   19 1    
    38   18   37 1    
    39   18   88 1    
    40   19   20 am   BACKBONE|DICT|INTERRES
    41   19   89 1    
    42   20   21 2    
    43   20   22 1    
    44   22   23 1    
    45   22   24 1    
    46   22   90 1    
    47   23   91 1    
    48   23   92 1    
    49   23   93 1    
    50   24   25 am   BACKBONE|DICT|INTERRES
    51   24   94 1    
    52   25   26 2    
    53   25   27 1    
    54   27   28 1    
    55   27   29 1    
    56   27   95 1    
    57   28   96 1    
    58   28   97 1    
    59   28   98 1    
    60   29   30 am   BACKBONE|DICT|INTERRES
    61   29   99 1    
    62   30   31 2    
    63   30   32 1    
    64   32   33 1    
    65   32   34 1    
    66   32  100 1    
    67   33  101 1    
    68   33  102 1    
    69   33  103 1    
    70   34   35 am   BACKBONE|DICT|INTERRES
    71   34  104 1    
    72   35   36 2    
    73   37   38 2    
    74   37   39 am   BACKBONE|DICT|INTERRES
    75   39   40 1    
    76   39  105 1    
    77   40   41 1    
    78   40   42 1    
    79   40  106 1    
    80   41  107 1    
    81   41  108 1    
    82   41  109 1    
    83   42   43 2    
    84   42   44 am   BACKBONE|DICT|INTERRES
    85   44   45 1    
    86   44  110 1    
    87   45   46 1    
    88   45   47 1    
    89   45  111 1    
    90   46  112 1    
    91   46  113 1    
    92   46  114 1    
    93   47   48 2    
    94   47   49 am   BACKBONE|DICT|INTERRES
    95   49   50 1    
    96   49  115 1    
    97   50   51 1    
    98   50   52 1    
    99   50  116 1    
   100   51  117 1    
   101   51  118 1    
   102   51  119 1    
   103   52   53 2    
   104   52   54 am   BACKBONE|DICT|INTERRES
   105   54   55 1    
   106   54  120 1    
   107   55   56 1    
   108   55   57 1    
   109   55  121 1    
   110   56  122 1    
   111   56  123 1    
   112   56  124 1    
   113   57   58 2    
   114   57   59 am   BACKBONE|DICT|INTERRES
   115   59   60 1    
   116   59  125 1    
   117   60   61 1    
   118   60   62 1    
   119   60  126 1    
   120   61  127 1    
   121   61  128 1    
   122   61  129 1    
   123   62   63 2    
   124   62   64 am   BACKBONE|DICT|INTERRES
   125   64   65 1    
   126   64  130 1    
   127   65   66 1    
   128   65   69 1    
   129   65  131 1    
   130   66   67 am   BACKBONE|DICT|INTERRES
   131   66   68 2    
   132   67  132 1    
   133   67  133 1    
   134   69   70 1    
   135   69  134 1    
   136   69  135 1    
   137   70   71 1    
   138   71  136 1    
   139   71  137 1    
@<TRIPOS>SUBSTRUCTURE
     1 UNK         1 GROUP             0       ****    0 ROOT    
