@<TRIPOS>MOLECULE
3R136
137   139    1
SMALL
USER_CHARGES


@<TRIPOS>ATOM
      1 CA         33.1510   24.0266   -1.9178 C.3       0 UNK        -0.1979 
      2 C          32.0529   25.0219   -1.5746 C.2       0 UNK         0.4864 
      3 O          32.0293   26.1220   -2.1264 O.2       0 UNK        -0.5359 
      4 N          31.1355   24.6410   -0.6755 N.am      1 UNK        -0.4318 
      5 CA         30.0278   25.4771   -0.1955 C.3       1 UNK         0.0824 
      6 C6         29.6869   25.1491    1.2797 C.3       12 UNK        -0.0944 
      7 S7         28.8844   23.5260    1.5387 S.3       12 UNK        -0.2672 
      8 C8         29.6037   23.0090    3.1307 C.3       12 UNK         0.0333 
      9 C9         29.2684   23.9817    4.2537 C.ar      12 UNK        -0.0807 
     10 C10        30.2793   24.7320    4.8638 C.ar      12 UNK        -0.0894 
     11 C11        29.9742   25.6238    5.8961 C.ar      12 UNK        -0.0804 
     12 C12        28.6455   25.7823    6.2997 C.ar      12 UNK        -0.0824 
     13 C13        27.6257   25.0381    5.6995 C.ar      12 UNK        -0.0762 
     14 C14        27.9471   24.1250    4.6894 C.ar      12 UNK        -0.0782 
     15 C15        26.1842   25.2112    6.1638 C.3       12 UNK         0.0230 
     16 S16        25.0416   25.6350    4.8081 S.3       12 UNK        -0.2608 
     17 C17        25.7349   27.2054    4.1780 C.3       12 UNK        -0.0989 
     18 CA         26.5243   27.0154    2.8510 C.3       5 UNK         0.0716 
     19 N          25.7761   26.2978    1.8091 N.am      5 UNK        -0.4135 
     20 C          24.6493   26.7123    1.2089 C.2       4 UNK         0.5031 
     21 O          24.0575   27.7516    1.5046 O.2       4 UNK        -0.5229 
     22 CA         24.0954   25.8444    0.0669 C.3       4 UNK         0.0329 
     23 CB         23.8850   26.6852   -1.2058 C.3       4 UNK        -0.2001 
     24 N          24.9881   24.7331   -0.2651 N.am      4 UNK        -0.4303 
     25 C          24.6586   23.4338   -0.2609 C.2       3 UNK         0.5044 
     26 O          23.5674   23.0082    0.1213 O.2       3 UNK        -0.5152 
     27 CA         25.7281   22.4391   -0.7684 C.3       3 UNK         0.0319 
     28 CB         25.1114   21.2241   -1.4933 C.3       3 UNK        -0.2001 
     29 N          26.7717   23.0697   -1.5899 N.am      3 UNK        -0.4354 
     30 C          26.6156   23.7325   -2.7492 C.2       2 UNK         0.4964 
     31 O          25.5587   23.7673   -3.3804 O.2       2 UNK        -0.5047 
     32 CA         27.8328   24.5269   -3.2708 C.3       2 UNK         0.0288 
     33 CB         27.4126   25.8628   -3.9223 C.3       2 UNK        -0.2113 
     34 N          28.8792   24.7594   -2.2625 N.am      2 UNK        -0.4145 
     35 C          28.7796   25.4408   -1.1083 C.2       1 UNK         0.5006 
     36 O          27.7376   25.9783   -0.7182 O.2       1 UNK        -0.5103 
     37 C          27.1297   28.3316    2.3046 C.2       5 UNK         0.5055 
     38 O          27.2456   29.3125    3.0405 O.2       5 UNK        -0.5220 
     39 N          27.5018   28.3327    1.0140 N.am      6 UNK        -0.4450 
     40 CA         27.9742   29.5021    0.2666 C.3       6 UNK         0.0367 
     41 CB         27.6032   29.3193   -1.2161 C.3       6 UNK        -0.1929 
     42 C          29.4811   29.7806    0.4231 C.2       6 UNK         0.5070 
     43 O          29.9905   30.6966   -0.2244 O.2       6 UNK        -0.5237 
     44 N          30.1811   29.0063    1.2630 N.am      7 UNK        -0.4739 
     45 CA         31.6155   29.1223    1.5472 C.3       7 UNK         0.0276 
     46 CB         32.1211   27.7758    2.1030 C.3       7 UNK        -0.1927 
     47 C          31.9453   30.3230    2.4608 C.2       7 UNK         0.5013 
     48 O          32.5205   30.1473    3.5361 O.2       7 UNK        -0.5193 
     49 N          31.5765   31.5314    2.0130 N.am      8 UNK        -0.4253 
     50 CA         31.8333   32.8116    2.6791 C.3       8 UNK         0.0242 
     51 CB         31.2687   33.9545    1.8209 C.3       8 UNK        -0.2000 
     52 C          33.3331   33.0182    2.9452 C.2       8 UNK         0.4948 
     53 O          34.1423   32.8136    2.0370 O.2       8 UNK        -0.5275 
     54 N          33.6751   33.3493    4.1978 N.am      9 UNK        -0.4246 
     55 CA         35.0217   33.4335    4.7873 C.3       9 UNK         0.0261 
     56 CB         35.8987   34.4822    4.0752 C.3       9 UNK        -0.1959 
     57 C          35.7526   32.0796    4.9016 C.2       9 UNK         0.5033 
     58 O          36.4024   31.8388    5.9196 O.2       9 UNK        -0.5390 
     59 N          35.6170   31.2097    3.8920 N.am      10 UNK        -0.4215 
     60 CA         36.1902   29.8619    3.8240 C.3       10 UNK         0.0240 
     61 CB         35.9331   29.2679    2.4303 C.3       10 UNK        -0.1982 
     62 C          35.7187   28.9096    4.9410 C.2       10 UNK         0.4970 
     63 O          36.4866   28.0262    5.3250 O.2       10 UNK        -0.4916 
     64 N          34.5077   29.1238    5.4762 N.am      11 UNK        -0.4279 
     65 CA         34.0249   28.4991    6.7215 C.3       11 UNK         0.1003 
     66 C          34.8455   28.8600    7.9988 C.2       11 UNK         0.5709 
     67 N          35.6775   29.8958    8.0055 N.am      11 UNK        -0.7358 
     68 O          34.7250   28.1747    9.0117 O.2       11 UNK        -0.4999 
     69 C69        32.5171   28.7754    6.9688 C.3       12 UNK        -0.0954 
     70 S70        31.4188   27.9726    5.7584 S.3       12 UNK        -0.2268 
     71 C71        31.0780   26.3992    6.5975 C.3       12 UNK         0.0203 
     72 H72        33.0431   23.0930   -1.3659 H         1 UNK         0.0888 
     73 H73        33.1301   23.7958   -2.9826 H         1 UNK         0.0888 
     74 H74        34.1267   24.4495   -1.6800 H         1 UNK         0.0888 
     75 H75        31.1942   23.7212   -0.2598 H         1 UNK         0.3017 
     76 H76        30.3602   26.5167   -0.2189 H         1 UNK         0.0873 
     77 H77        29.0418   25.9208    1.6923 H         1 UNK         0.0745 
     78 H78        30.5982   25.1903    1.8775 H         1 UNK         0.0745 
     79 H79        29.2205   22.0203    3.3868 H         1 UNK         0.0705 
     80 H80        30.6833   22.8992    3.0164 H         1 UNK         0.0705 
     81 H81        31.3059   24.6185    4.5427 H         1 UNK         0.1334 
     82 H82        28.4095   26.4799    7.0919 H         1 UNK         0.1417 
     83 H83        27.1636   23.5421    4.2239 H         1 UNK         0.1562 
     84 H84        26.1109   25.9796    6.9351 H         1 UNK         0.0748 
     85 H85        25.8503   24.2813    6.6257 H         1 UNK         0.0748 
     86 H86        26.3759   27.6455    4.9443 H         1 UNK         0.0940 
     87 H87        24.9124   27.9087    4.0379 H         1 UNK         0.0940 
     88 H88        27.3783   26.3845    3.0904 H         1 UNK         0.0703 
     89 H89        26.1762   25.4221    1.5062 H         1 UNK         0.3081 
     90 H90        23.1251   25.4710    0.3999 H         1 UNK         0.0719 
     91 H91        23.1874   27.5048   -1.0286 H         1 UNK         0.0809 
     92 H92        24.8211   27.1208   -1.5580 H         1 UNK         0.0809 
     93 H93        23.4740   26.0809   -2.0149 H         1 UNK         0.0809 
     94 H94        25.9112   24.9945   -0.5965 H         1 UNK         0.2990 
     95 H95        26.2339   22.0672    0.1239 H         1 UNK         0.0690 
     96 H96        25.8821   20.5353   -1.8393 H         1 UNK         0.0788 
     97 H97        24.5172   21.5249   -2.3566 H         1 UNK         0.0788 
     98 H98        24.4538   20.6634   -0.8279 H         1 UNK         0.0788 
     99 H99        27.6871   23.1015   -1.1631 H         1 UNK         0.2993 
    100 H100       28.2849   23.9062   -4.0459 H         1 UNK         0.0949 
    101 H101       26.8769   26.5048   -3.2222 H         1 UNK         0.0767 
    102 H102       28.2781   26.4153   -4.2880 H         1 UNK         0.0767 
    103 H103       26.7546   25.6947   -4.7757 H         1 UNK         0.0767 
    104 H104       29.7774   24.3451   -2.4686 H         1 UNK         0.3013 
    105 H105       27.4002   27.4774    0.4737 H         1 UNK         0.3121 
    106 H106       27.4491   30.3858    0.6356 H         1 UNK         0.0774 
    107 H107       28.1478   28.4918   -1.6715 H         1 UNK         0.0815 
    108 H108       26.5371   29.1281   -1.3393 H         1 UNK         0.0815 
    109 H109       27.8370   30.2157   -1.7920 H         1 UNK         0.0815 
    110 H110       29.6687   28.3313    1.8094 H         1 UNK         0.2987 
    111 H111       32.1434   29.3031    0.6081 H         1 UNK         0.0949 
    112 H112       32.1425   27.0144    1.3248 H         1 UNK         0.0806 
    113 H113       33.1356   27.8477    2.4935 H         1 UNK         0.0806 
    114 H114       31.4917   27.4110    2.9139 H         1 UNK         0.0806 
    115 H115       31.1001   31.5624    1.1164 H         1 UNK         0.3010 
    116 H116       31.2995   32.7944    3.6315 H         1 UNK         0.0829 
    117 H117       31.7489   33.9972    0.8422 H         1 UNK         0.0813 
    118 H118       31.4250   34.9202    2.3037 H         1 UNK         0.0813 
    119 H119       30.1959   33.8409    1.6632 H         1 UNK         0.0813 
    120 H120       32.9229   33.4649    4.8637 H         1 UNK         0.3038 
    121 H121       34.8673   33.7838    5.8093 H         1 UNK         0.0769 
    122 H122       35.4066   35.4541    4.0417 H         1 UNK         0.0811 
    123 H123       36.1391   34.1921    3.0521 H         1 UNK         0.0811 
    124 H124       36.8448   34.6159    4.6013 H         1 UNK         0.0811 
    125 H125       35.0689   31.5214    3.0941 H         1 UNK         0.3204 
    126 H126       37.2700   29.9693    3.9456 H         1 UNK         0.0748 
    127 H127       34.8749   29.2824    2.1757 H         1 UNK         0.0771 
    128 H128       36.4642   29.8290    1.6611 H         1 UNK         0.0771 
    129 H129       36.2751   28.2336    2.3701 H         1 UNK         0.0771 
    130 H130       33.8808   29.7819    5.0254 H         1 UNK         0.2980 
    131 H131       34.1453   27.4215    6.5964 H         1 UNK         0.0545 
    132 H132       36.1941   30.0984    8.8461 H         1 UNK         0.3459 
    133 H133       35.8163   30.4752    7.1837 H         1 UNK         0.3459 
    134 H134       32.3250   29.8493    6.9388 H         1 UNK         0.0616 
    135 H135       32.2122   28.4492    7.9650 H         1 UNK         0.0616 
    136 H136       30.7920   26.5903    7.6330 H         1 UNK         0.0634 
    137 H137       31.9927   25.8056    6.6340 H         1 UNK         0.0634 
@<TRIPOS>BOND
     1    1    2 1    
     2    1   72 1    
     3    1   73 1    
     4    1   74 1    
     5    2    3 2    
     6    2    4 am   BACKBONE|DICT|INTERRES
     7    4    5 1    
     8    4   75 1    
     9    5    6 1    
    10    5   35 1    
    11    5   76 1    
    12    6    7 1    
    13    6   77 1    
    14    6   78 1    
    15    7    8 1    
    16    8    9 1    
    17    8   79 1    
    18    8   80 1    
    19    9   10 ar   
    20    9   14 ar   
    21   10   11 ar   
    22   10   81 1    
    23   11   12 ar   
    24   11   71 1    
    25   12   13 ar   
    26   12   82 1    
    27   13   14 ar   
    28   13   15 1    
    29   14   83 1    
    30   15   16 1    
    31   15   84 1    
    32   15   85 1    
    33   16   17 1    
    34   17   18 1    
    35   17   86 1    
    36   17   87 1    
    37   18   19 1    
    38   18   37 1    
    39   18   88 1    
    40   19   20 am   BACKBONE|DICT|INTERRES
    41   19   89 1    
    42   20   21 2    
    43   20   22 1    
    44   22   23 1    
    45   22   24 1    
    46   22   90 1    
    47   23   91 1    
    48   23   92 1    
    49   23   93 1    
    50   24   25 am   BACKBONE|DICT|INTERRES
    51   24   94 1    
    52   25   26 2    
    53   25   27 1    
    54   27   28 1    
    55   27   29 1    
    56   27   95 1    
    57   28   96 1    
    58   28   97 1    
    59   28   98 1    
    60   29   30 am   BACKBONE|DICT|INTERRES
    61   29   99 1    
    62   30   31 2    
    63   30   32 1    
    64   32   33 1    
    65   32   34 1    
    66   32  100 1    
    67   33  101 1    
    68   33  102 1    
    69   33  103 1    
    70   34   35 am   BACKBONE|DICT|INTERRES
    71   34  104 1    
    72   35   36 2    
    73   37   38 2    
    74   37   39 am   BACKBONE|DICT|INTERRES
    75   39   40 1    
    76   39  105 1    
    77   40   41 1    
    78   40   42 1    
    79   40  106 1    
    80   41  107 1    
    81   41  108 1    
    82   41  109 1    
    83   42   43 2    
    84   42   44 am   BACKBONE|DICT|INTERRES
    85   44   45 1    
    86   44  110 1    
    87   45   46 1    
    88   45   47 1    
    89   45  111 1    
    90   46  112 1    
    91   46  113 1    
    92   46  114 1    
    93   47   48 2    
    94   47   49 am   BACKBONE|DICT|INTERRES
    95   49   50 1    
    96   49  115 1    
    97   50   51 1    
    98   50   52 1    
    99   50  116 1    
   100   51  117 1    
   101   51  118 1    
   102   51  119 1    
   103   52   53 2    
   104   52   54 am   BACKBONE|DICT|INTERRES
   105   54   55 1    
   106   54  120 1    
   107   55   56 1    
   108   55   57 1    
   109   55  121 1    
   110   56  122 1    
   111   56  123 1    
   112   56  124 1    
   113   57   58 2    
   114   57   59 am   BACKBONE|DICT|INTERRES
   115   59   60 1    
   116   59  125 1    
   117   60   61 1    
   118   60   62 1    
   119   60  126 1    
   120   61  127 1    
   121   61  128 1    
   122   61  129 1    
   123   62   63 2    
   124   62   64 am   BACKBONE|DICT|INTERRES
   125   64   65 1    
   126   64  130 1    
   127   65   66 1    
   128   65   69 1    
   129   65  131 1    
   130   66   67 am   BACKBONE|DICT|INTERRES
   131   66   68 2    
   132   67  132 1    
   133   67  133 1    
   134   69   70 1    
   135   69  134 1    
   136   69  135 1    
   137   70   71 1    
   138   71  136 1    
   139   71  137 1    
@<TRIPOS>SUBSTRUCTURE
     1 UNK         1 GROUP             0       ****    0 ROOT    
