@<TRIPOS>MOLECULE
3R136
137   139    1
SMALL
USER_CHARGES


@<TRIPOS>ATOM
      1 CA         27.7722   19.6994    1.1397 C.3       0 UNK        -0.1979 
      2 C          27.8697   20.3218   -0.2455 C.2       0 UNK         0.4864 
      3 O          27.2989   19.7887   -1.1987 O.2       0 UNK        -0.5359 
      4 N          28.5949   21.4404   -0.3634 N.am      1 UNK        -0.4318 
      5 CA         28.7277   22.2313   -1.5897 C.3       1 UNK         0.0824 
      6 C6         29.9965   23.1250   -1.5573 C.3       12 UNK        -0.0944 
      7 S7         30.0891   24.2513   -0.1192 S.3       12 UNK        -0.2672 
      8 C8         31.5298   23.5693    0.7568 C.3       12 UNK         0.0333 
      9 C9         31.7439   24.2858    2.0788 C.ar      12 UNK        -0.0807 
     10 C10        32.6687   25.3290    2.1814 C.ar      12 UNK        -0.0894 
     11 C11        32.8471   26.0028    3.3943 C.ar      12 UNK        -0.0804 
     12 C12        32.0820   25.6324    4.5051 C.ar      12 UNK        -0.0824 
     13 C13        31.1629   24.5830    4.4151 C.ar      12 UNK        -0.0762 
     14 C14        31.0056   23.9074    3.2021 C.ar      12 UNK        -0.0782 
     15 C15        30.3244   24.1847    5.6200 C.3       12 UNK         0.0230 
     16 S16        28.5517   24.4776    5.3277 S.3       12 UNK        -0.2608 
     17 C17        28.4762   26.3009    5.2572 C.3       12 UNK        -0.0989 
     18 CA         28.5917   26.8884    3.8212 C.3       5 UNK         0.0716 
     19 N          27.7118   26.2654    2.8229 N.am      5 UNK        -0.4135 
     20 C          26.3745   26.1770    2.8375 C.2       4 UNK         0.5031 
     21 O          25.6715   26.5773    3.7685 O.2       4 UNK        -0.5229 
     22 CA         25.7176   25.6014    1.5679 C.3       4 UNK         0.0329 
     23 CB         24.2142   25.9363    1.4760 C.3       4 UNK        -0.2001 
     24 N          26.3945   25.9943    0.3241 N.am      4 UNK        -0.4303 
     25 C          26.6725   27.2412   -0.0985 C.2       3 UNK         0.5044 
     26 O          26.4608   28.2555    0.5693 O.2       3 UNK        -0.5152 
     27 CA         27.3186   27.3959   -1.4911 C.3       3 UNK         0.0319 
     28 CB         28.7979   27.7915   -1.3586 C.3       3 UNK        -0.2001 
     29 N          27.2275   26.1940   -2.3223 N.am      3 UNK        -0.4354 
     30 C          26.1044   25.7290   -2.8892 C.2       2 UNK         0.4964 
     31 O          25.0279   26.3257   -2.8626 O.2       2 UNK        -0.5047 
     32 CA         26.1845   24.3524   -3.5802 C.3       2 UNK         0.0288 
     33 CB         26.2829   24.5225   -5.1052 C.3       2 UNK        -0.2113 
     34 N          27.2912   23.5018   -3.1190 N.am      2 UNK        -0.4145 
     35 C          27.4539   23.0591   -1.8628 C.2       1 UNK         0.5006 
     36 O          26.6811   23.3348   -0.9400 O.2       1 UNK        -0.5103 
     37 C          28.4587   28.4263    3.8562 C.2       5 UNK         0.5055 
     38 O          29.4719   29.1236    3.7889 O.2       5 UNK        -0.5220 
     39 N          27.2204   28.9239    3.9649 N.am      6 UNK        -0.4450 
     40 CA         26.8494   30.3248    4.1664 C.3       6 UNK         0.0367 
     41 CB         25.3220   30.4267    4.3035 C.3       6 UNK        -0.1929 
     42 C          27.3550   31.2912    3.0849 C.2       6 UNK         0.5070 
     43 O          27.7792   32.3943    3.4291 O.2       6 UNK        -0.5237 
     44 N          27.3125   30.8780    1.8098 N.am      7 UNK        -0.4739 
     45 CA         27.8069   31.6938    0.6946 C.3       7 UNK         0.0276 
     46 CB         27.0348   31.3472   -0.5882 C.3       7 UNK        -0.1927 
     47 C          29.3253   31.5584    0.4827 C.2       7 UNK         0.5013 
     48 O          29.9045   32.4004   -0.2046 O.2       7 UNK        -0.5193 
     49 N          29.9431   30.5178    1.0613 N.am      8 UNK        -0.4253 
     50 CA         31.3899   30.3007    1.0318 C.3       8 UNK         0.0242 
     51 CB         31.7019   28.7999    1.1394 C.3       8 UNK        -0.2000 
     52 C          32.0785   31.1060    2.1435 C.2       8 UNK         0.4948 
     53 O          33.0542   31.8024    1.8644 O.2       8 UNK        -0.5275 
     54 N          31.5372   31.0192    3.3693 N.am      9 UNK        -0.4246 
     55 CA         31.7967   31.8267    4.5735 C.3       9 UNK         0.0261 
     56 CB         31.3513   33.2829    4.3384 C.3       9 UNK        -0.1959 
     57 C          33.2213   31.8003    5.1665 C.2       9 UNK         0.5033 
     58 O          33.3562   31.9619    6.3796 O.2       9 UNK        -0.5390 
     59 N          34.2524   31.6330    4.3313 N.am      10 UNK        -0.4215 
     60 CA         35.6720   31.7374    4.6874 C.3       10 UNK         0.0240 
     61 CB         36.5030   31.7696    3.3939 C.3       10 UNK        -0.1982 
     62 C          36.1962   30.6362    5.6276 C.2       10 UNK         0.4970 
     63 O          37.2135   30.8526    6.2880 O.2       10 UNK        -0.4916 
     64 N          35.5269   29.4784    5.6498 N.am      11 UNK        -0.4279 
     65 CA         35.8848   28.3113    6.4688 C.3       11 UNK         0.1003 
     66 C          35.7115   28.5735    7.9895 C.2       11 UNK         0.5709 
     67 N          36.6342   28.0943    8.8128 N.am      11 UNK        -0.7358 
     68 O          34.7273   29.1637    8.4302 O.2       11 UNK        -0.4999 
     69 C69        35.0895   27.0534    6.0375 C.3       12 UNK        -0.0954 
     70 S70        35.3980   26.6062    4.2954 S.3       12 UNK        -0.2268 
     71 C71        33.8550   27.1388    3.4927 C.3       12 UNK         0.0203 
     72 H72        26.7314   19.6596    1.4598 H         1 UNK         0.0888 
     73 H73        28.1635   18.6826    1.1230 H         1 UNK         0.0888 
     74 H74        28.3334   20.2666    1.8822 H         1 UNK         0.0888 
     75 H75        29.0020   21.8607    0.4589 H         1 UNK         0.3017 
     76 H76        28.8381   21.5334   -2.4229 H         1 UNK         0.0873 
     77 H77        30.8807   22.4857   -1.5686 H         1 UNK         0.0745 
     78 H78        30.0732   23.7252   -2.4658 H         1 UNK         0.0745 
     79 H79        31.3828   22.5027    0.9336 H         1 UNK         0.0705 
     80 H80        32.4149   23.6609    0.1251 H         1 UNK         0.0705 
     81 H81        33.2452   25.6203    1.3139 H         1 UNK         0.1334 
     82 H82        32.1982   26.1599    5.4404 H         1 UNK         0.1417 
     83 H83        30.2862   23.1032    3.1278 H         1 UNK         0.1562 
     84 H84        30.6391   24.7196    6.5174 H         1 UNK         0.0748 
     85 H85        30.4780   23.1244    5.8251 H         1 UNK         0.0748 
     86 H86        29.2593   26.7123    5.8971 H         1 UNK         0.0940 
     87 H87        27.5331   26.5998    5.7186 H         1 UNK         0.0940 
     88 H88        29.6011   26.6868    3.4623 H         1 UNK         0.0703 
     89 H89        28.1834   25.9201    1.9995 H         1 UNK         0.3081 
     90 H90        25.8141   24.5170    1.6402 H         1 UNK         0.0719 
     91 H91        24.0438   27.0131    1.4423 H         1 UNK         0.0809 
     92 H92        23.7652   25.4978    0.5847 H         1 UNK         0.0809 
     93 H93        23.6706   25.5459    2.3372 H         1 UNK         0.0809 
     94 H94        26.6220   25.2183   -0.2908 H         1 UNK         0.2990 
     95 H95        26.7910   28.2024   -2.0039 H         1 UNK         0.0690 
     96 H96        29.2449   27.9921   -2.3323 H         1 UNK         0.0788 
     97 H97        29.3837   27.0108   -0.8744 H         1 UNK         0.0788 
     98 H98        28.9122   28.6949   -0.7618 H         1 UNK         0.0788 
     99 H99        28.0680   25.6420   -2.4082 H         1 UNK         0.2993 
    100 H100       25.2532   23.8291   -3.3523 H         1 UNK         0.0949 
    101 H101       25.4569   25.1257   -5.4853 H         1 UNK         0.0767 
    102 H102       27.2096   25.0184   -5.3973 H         1 UNK         0.0767 
    103 H103       26.2392   23.5605   -5.6164 H         1 UNK         0.0767 
    104 H104       27.9718   23.2394   -3.8180 H         1 UNK         0.3013 
    105 H105       26.4619   28.2448    3.9747 H         1 UNK         0.3121 
    106 H106       27.2966   30.6383    5.1119 H         1 UNK         0.0774 
    107 H107       24.8135   30.0755    3.4045 H         1 UNK         0.0815 
    108 H108       25.0117   31.4587    4.4732 H         1 UNK         0.0815 
    109 H109       24.9585   29.8376    5.1457 H         1 UNK         0.0815 
    110 H110       26.9445   29.9570    1.5845 H         1 UNK         0.2987 
    111 H111       27.6114   32.7465    0.9124 H         1 UNK         0.0949 
    112 H112       27.2250   30.3278   -0.9155 H         1 UNK         0.0806 
    113 H113       25.9597   31.4588   -0.4475 H         1 UNK         0.0806 
    114 H114       27.3248   32.0076   -1.4065 H         1 UNK         0.0806 
    115 H115       29.3998   29.9162    1.6656 H         1 UNK         0.3010 
    116 H116       31.7809   30.6497    0.0733 H         1 UNK         0.0829 
    117 H117       31.1998   28.2310    0.3579 H         1 UNK         0.0813 
    118 H118       32.7706   28.6267    1.0179 H         1 UNK         0.0813 
    119 H119       31.4040   28.3802    2.1002 H         1 UNK         0.0813 
    120 H120       30.7741   30.3521    3.4835 H         1 UNK         0.3038 
    121 H121       31.1440   31.4063    5.3405 H         1 UNK         0.0769 
    122 H122       31.9496   33.7701    3.5677 H         1 UNK         0.0811 
    123 H123       31.4488   33.8752    5.2493 H         1 UNK         0.0811 
    124 H124       30.3066   33.3324    4.0317 H         1 UNK         0.0811 
    125 H125       34.0233   31.5888    3.3385 H         1 UNK         0.3204 
    126 H126       35.8102   32.6895    5.2040 H         1 UNK         0.0748 
    127 H127       37.5659   31.8838    3.6121 H         1 UNK         0.0771 
    128 H128       36.3843   30.8516    2.8167 H         1 UNK         0.0771 
    129 H129       36.2133   32.6057    2.7567 H         1 UNK         0.0771 
    130 H130       34.6905   29.3987    5.0950 H         1 UNK         0.2980 
    131 H131       36.9429   28.1117    6.2862 H         1 UNK         0.0545 
    132 H132       36.5286   28.2404    9.8046 H         1 UNK         0.3459 
    133 H133       37.4384   27.5969    8.4629 H         1 UNK         0.3459 
    134 H134       35.3772   26.1949    6.6472 H         1 UNK         0.0616 
    135 H135       34.0234   27.2023    6.2086 H         1 UNK         0.0616 
    136 H136       33.4164   27.9889    4.0169 H         1 UNK         0.0634 
    137 H137       34.1137   27.4982    2.4970 H         1 UNK         0.0634 
@<TRIPOS>BOND
     1    1    2 1    
     2    1   72 1    
     3    1   73 1    
     4    1   74 1    
     5    2    3 2    
     6    2    4 am   BACKBONE|DICT|INTERRES
     7    4    5 1    
     8    4   75 1    
     9    5    6 1    
    10    5   35 1    
    11    5   76 1    
    12    6    7 1    
    13    6   77 1    
    14    6   78 1    
    15    7    8 1    
    16    8    9 1    
    17    8   79 1    
    18    8   80 1    
    19    9   10 ar   
    20    9   14 ar   
    21   10   11 ar   
    22   10   81 1    
    23   11   12 ar   
    24   11   71 1    
    25   12   13 ar   
    26   12   82 1    
    27   13   14 ar   
    28   13   15 1    
    29   14   83 1    
    30   15   16 1    
    31   15   84 1    
    32   15   85 1    
    33   16   17 1    
    34   17   18 1    
    35   17   86 1    
    36   17   87 1    
    37   18   19 1    
    38   18   37 1    
    39   18   88 1    
    40   19   20 am   BACKBONE|DICT|INTERRES
    41   19   89 1    
    42   20   21 2    
    43   20   22 1    
    44   22   23 1    
    45   22   24 1    
    46   22   90 1    
    47   23   91 1    
    48   23   92 1    
    49   23   93 1    
    50   24   25 am   BACKBONE|DICT|INTERRES
    51   24   94 1    
    52   25   26 2    
    53   25   27 1    
    54   27   28 1    
    55   27   29 1    
    56   27   95 1    
    57   28   96 1    
    58   28   97 1    
    59   28   98 1    
    60   29   30 am   BACKBONE|DICT|INTERRES
    61   29   99 1    
    62   30   31 2    
    63   30   32 1    
    64   32   33 1    
    65   32   34 1    
    66   32  100 1    
    67   33  101 1    
    68   33  102 1    
    69   33  103 1    
    70   34   35 am   BACKBONE|DICT|INTERRES
    71   34  104 1    
    72   35   36 2    
    73   37   38 2    
    74   37   39 am   BACKBONE|DICT|INTERRES
    75   39   40 1    
    76   39  105 1    
    77   40   41 1    
    78   40   42 1    
    79   40  106 1    
    80   41  107 1    
    81   41  108 1    
    82   41  109 1    
    83   42   43 2    
    84   42   44 am   BACKBONE|DICT|INTERRES
    85   44   45 1    
    86   44  110 1    
    87   45   46 1    
    88   45   47 1    
    89   45  111 1    
    90   46  112 1    
    91   46  113 1    
    92   46  114 1    
    93   47   48 2    
    94   47   49 am   BACKBONE|DICT|INTERRES
    95   49   50 1    
    96   49  115 1    
    97   50   51 1    
    98   50   52 1    
    99   50  116 1    
   100   51  117 1    
   101   51  118 1    
   102   51  119 1    
   103   52   53 2    
   104   52   54 am   BACKBONE|DICT|INTERRES
   105   54   55 1    
   106   54  120 1    
   107   55   56 1    
   108   55   57 1    
   109   55  121 1    
   110   56  122 1    
   111   56  123 1    
   112   56  124 1    
   113   57   58 2    
   114   57   59 am   BACKBONE|DICT|INTERRES
   115   59   60 1    
   116   59  125 1    
   117   60   61 1    
   118   60   62 1    
   119   60  126 1    
   120   61  127 1    
   121   61  128 1    
   122   61  129 1    
   123   62   63 2    
   124   62   64 am   BACKBONE|DICT|INTERRES
   125   64   65 1    
   126   64  130 1    
   127   65   66 1    
   128   65   69 1    
   129   65  131 1    
   130   66   67 am   BACKBONE|DICT|INTERRES
   131   66   68 2    
   132   67  132 1    
   133   67  133 1    
   134   69   70 1    
   135   69  134 1    
   136   69  135 1    
   137   70   71 1    
   138   71  136 1    
   139   71  137 1    
@<TRIPOS>SUBSTRUCTURE
     1 UNK         1 GROUP             0       ****    0 ROOT    
