@<TRIPOS>MOLECULE
3R136
137   139    1
SMALL
USER_CHARGES


@<TRIPOS>ATOM
      1 CA         30.0986   23.6331   -2.5621 C.3       0 UNK        -0.1979 
      2 C          28.5820   23.5629   -2.4119 C.2       0 UNK         0.4864 
      3 O          27.8662   23.8303   -3.3747 O.2       0 UNK        -0.5359 
      4 N          28.0464   23.2134   -1.2372 N.am      1 UNK        -0.4318 
      5 CA         28.7424   22.8542   -0.0041 C.3       1 UNK         0.0824 
      6 C6         29.0239   21.3255    0.0388 C.3       12 UNK        -0.0944 
      7 S7         29.7258   20.6541    1.5866 S.3       12 UNK        -0.2672 
      8 C8         31.5018   21.0131    1.4068 C.3       12 UNK         0.0333 
      9 C9         31.8240   22.4432    1.8155 C.ar      12 UNK        -0.0807 
     10 C10        31.7770   22.8094    3.1642 C.ar      12 UNK        -0.0894 
     11 C11        32.0701   24.1179    3.5579 C.ar      12 UNK        -0.0804 
     12 C12        32.4186   25.0598    2.5840 C.ar      12 UNK        -0.0824 
     13 C13        32.4416   24.7178    1.2275 C.ar      12 UNK        -0.0762 
     14 C14        32.1694   23.3980    0.8546 C.ar      12 UNK        -0.0782 
     15 C15        32.7583   25.7549    0.1508 C.3       12 UNK         0.0230 
     16 S16        32.0510   27.4143    0.4554 S.3       12 UNK        -0.2608 
     17 C17        30.2712   27.0798    0.7173 C.3       12 UNK        -0.0989 
     18 CA         29.3460   27.4171   -0.4797 C.3       5 UNK         0.0716 
     19 N          27.9705   26.9859   -0.2047 N.am      5 UNK        -0.4135 
     20 C          26.9821   26.9653   -1.1138 C.2       4 UNK         0.5031 
     21 O          27.1626   27.2124   -2.3072 O.2       4 UNK        -0.5229 
     22 CA         25.5543   26.6195   -0.6435 C.3       4 UNK         0.0329 
     23 CB         24.9824   25.4157   -1.4123 C.3       4 UNK        -0.2001 
     24 N          25.4630   26.3555    0.7947 N.am      4 UNK        -0.4303 
     25 C          25.1772   27.2832    1.7209 C.2       3 UNK         0.5044 
     26 O          24.9172   28.4563    1.4532 O.2       3 UNK        -0.5152 
     27 CA         25.1857   26.8450    3.2005 C.3       3 UNK         0.0319 
     28 CB         23.7511   26.5937    3.6921 C.3       3 UNK        -0.2001 
     29 N          26.0022   25.6602    3.4849 N.am      3 UNK        -0.4354 
     30 C          27.3197   25.5607    3.2638 C.2       2 UNK         0.4964 
     31 O          27.9972   26.4712    2.7905 O.2       2 UNK        -0.5047 
     32 CA         27.9929   24.2050    3.5408 C.3       2 UNK         0.0288 
     33 CB         27.0862   23.1686    4.2429 C.3       2 UNK        -0.2113 
     34 N          28.5549   23.6448    2.3078 N.am      2 UNK        -0.4145 
     35 C          27.8956   23.3805    1.1690 C.2       1 UNK         0.5006 
     36 O          26.6829   23.5614    1.0129 O.2       1 UNK        -0.5103 
     37 C          29.3817   28.9218   -0.8284 C.2       5 UNK         0.5055 
     38 O          28.6271   29.7076   -0.2510 O.2       5 UNK        -0.5220 
     39 N          30.2980   29.3080   -1.7264 N.am      6 UNK        -0.4450 
     40 CA         30.5417   30.7004   -2.1218 C.3       6 UNK         0.0367 
     41 CB         31.5146   30.7224   -3.3118 C.3       6 UNK        -0.1929 
     42 C          31.0719   31.5904   -0.9798 C.2       6 UNK         0.5070 
     43 O          30.9263   32.8107   -1.0530 O.2       6 UNK        -0.5237 
     44 N          31.6655   30.9701    0.0478 N.am      7 UNK        -0.4739 
     45 CA         32.2017   31.6212    1.2417 C.3       7 UNK         0.0276 
     46 CB         33.7310   31.4348    1.2631 C.3       7 UNK        -0.1927 
     47 C          31.5396   31.0752    2.5183 C.2       7 UNK         0.5013 
     48 O          32.1928   31.0518    3.5616 O.2       7 UNK        -0.5193 
     49 N          30.2667   30.6505    2.4368 N.am      8 UNK        -0.4253 
     50 CA         29.4911   29.9894    3.5035 C.3       8 UNK         0.0242 
     51 CB         28.0471   29.7701    3.0236 C.3       8 UNK        -0.2000 
     52 C          29.4696   30.6863    4.8785 C.2       8 UNK         0.4948 
     53 O          29.2906   30.0052    5.8881 O.2       8 UNK        -0.5275 
     54 N          29.6646   32.0128    4.9060 N.am      9 UNK        -0.4246 
     55 CA         29.8086   32.8106    6.1279 C.3       9 UNK         0.0261 
     56 CB         29.8117   34.3034    5.7612 C.3       9 UNK        -0.1959 
     57 C          31.0626   32.4564    6.9528 C.2       9 UNK         0.5033 
     58 O          31.0297   32.5926    8.1768 O.2       9 UNK        -0.5390 
     59 N          32.1300   32.0092    6.2780 N.am      10 UNK        -0.4215 
     60 CA         33.3684   31.5173    6.8866 C.3       10 UNK         0.0240 
     61 CB         34.5656   32.2198    6.2244 C.3       10 UNK        -0.1982 
     62 C          33.4999   29.9925    6.7381 C.2       10 UNK         0.4970 
     63 O          34.0634   29.3488    7.6233 O.2       10 UNK        -0.4916 
     64 N          32.9877   29.4499    5.6256 N.am      11 UNK        -0.4279 
     65 CA         33.0648   28.0432    5.2094 C.3       11 UNK         0.1003 
     66 C          34.5027   27.5828    4.8146 C.2       11 UNK         0.5709 
     67 N          35.3997   28.4888    4.4463 N.am      11 UNK        -0.7358 
     68 O          34.8144   26.3971    4.8170 O.2       11 UNK        -0.4999 
     69 C69        32.3174   27.0803    6.1854 C.3       12 UNK        -0.0954 
     70 S70        31.0869   26.0282    5.3419 S.3       12 UNK        -0.2268 
     71 C71        32.0285   24.4960    5.0352 C.3       12 UNK         0.0203 
     72 H72        30.5749   22.7119   -2.2302 H         1 UNK         0.0888 
     73 H73        30.3716   23.7864   -3.6061 H         1 UNK         0.0888 
     74 H74        30.4988   24.4673   -1.9881 H         1 UNK         0.0888 
     75 H75        27.0404   23.2230   -1.1290 H         1 UNK         0.3017 
     76 H76        29.6817   23.4000    0.0345 H         1 UNK         0.0873 
     77 H77        28.0929   20.7837   -0.1396 H         1 UNK         0.0745 
     78 H78        29.6811   21.0424   -0.7841 H         1 UNK         0.0745 
     79 H79        31.8230   20.8087    0.3842 H         1 UNK         0.0705 
     80 H80        32.0629   20.3277    2.0438 H         1 UNK         0.0705 
     81 H81        31.5125   22.0688    3.9074 H         1 UNK         0.1334 
     82 H82        32.6541   26.0703    2.8825 H         1 UNK         0.1417 
     83 H83        32.2113   23.1155   -0.1887 H         1 UNK         0.1562 
     84 H84        32.4088   25.4125   -0.8237 H         1 UNK         0.0748 
     85 H85        33.8418   25.8504    0.0710 H         1 UNK         0.0748 
     86 H86        29.9683   27.6492    1.5966 H         1 UNK         0.0940 
     87 H87        30.1368   26.0347    0.9951 H         1 UNK         0.0940 
     88 H88        29.6923   26.8546   -1.3491 H         1 UNK         0.0703 
     89 H89        27.7438   26.8257    0.7706 H         1 UNK         0.3081 
     90 H90        24.9339   27.4832   -0.8917 H         1 UNK         0.0719 
     91 H91        25.5361   24.5013   -1.2091 H         1 UNK         0.0809 
     92 H92        23.9397   25.2390   -1.1480 H         1 UNK         0.0809 
     93 H93        25.0170   25.5829   -2.4899 H         1 UNK         0.0809 
     94 H94        25.6858   25.4117    1.0949 H         1 UNK         0.2990 
     95 H95        25.6026   27.6725    3.7775 H         1 UNK         0.0690 
     96 H96        23.2872   25.7553    3.1708 H         1 UNK         0.0788 
     97 H97        23.1219   27.4694    3.5255 H         1 UNK         0.0788 
     98 H98        23.7282   26.3808    4.7611 H         1 UNK         0.0788 
     99 H99        25.5176   24.8489    3.8406 H         1 UNK         0.2993 
    100 H100       28.8344   24.4133    4.2022 H         1 UNK         0.0949 
    101 H101       26.2260   22.8868    3.6345 H         1 UNK         0.0767 
    102 H102       27.6418   22.2562    4.4611 H         1 UNK         0.0767 
    103 H103       26.7150   23.5486    5.1957 H         1 UNK         0.0767 
    104 H104       29.5509   23.4684    2.3337 H         1 UNK         0.3013 
    105 H105       30.8980   28.6094   -2.1418 H         1 UNK         0.3121 
    106 H106       29.5900   31.1254   -2.4481 H         1 UNK         0.0774 
    107 H107       31.6938   31.7440   -3.6501 H         1 UNK         0.0815 
    108 H108       32.4824   30.2923   -3.0505 H         1 UNK         0.0815 
    109 H109       31.1167   30.1680   -4.1619 H         1 UNK         0.0815 
    110 H110       31.7332   29.9607    0.0231 H         1 UNK         0.2987 
    111 H111       31.9902   32.6923    1.2224 H         1 UNK         0.0949 
    112 H112       34.0064   30.3831    1.3539 H         1 UNK         0.0806 
    113 H113       34.1898   31.8243    0.3543 H         1 UNK         0.0806 
    114 H114       34.1823   31.9655    2.1025 H         1 UNK         0.0806 
    115 H115       29.8085   30.7128    1.5359 H         1 UNK         0.3010 
    116 H116       29.9462   29.0096    3.6637 H         1 UNK         0.0829 
    117 H117       27.4381   29.3160    3.8064 H         1 UNK         0.0813 
    118 H118       27.5673   30.7061    2.7362 H         1 UNK         0.0813 
    119 H119       28.0060   29.0959    2.1702 H         1 UNK         0.0813 
    120 H120       29.7850   32.4949    4.0273 H         1 UNK         0.3038 
    121 H121       28.9377   32.6145    6.7570 H         1 UNK         0.0769 
    122 H122       29.8910   34.9239    6.6550 H         1 UNK         0.0811 
    123 H123       28.8915   34.5897    5.2516 H         1 UNK         0.0811 
    124 H124       30.6504   34.5590    5.1124 H         1 UNK         0.0811 
    125 H125       32.0513   31.9016    5.2705 H         1 UNK         0.3204 
    126 H126       33.3871   31.7465    7.9541 H         1 UNK         0.0748 
    127 H127       35.5085   31.8670    6.6445 H         1 UNK         0.0771 
    128 H128       34.5973   32.0405    5.1488 H         1 UNK         0.0771 
    129 H129       34.5247   33.2978    6.3814 H         1 UNK         0.0771 
    130 H130       32.6072   30.0731    4.9161 H         1 UNK         0.2980 
    131 H131       32.5268   28.0416    4.2611 H         1 UNK         0.0545 
    132 H132       36.3244   28.1854    4.1867 H         1 UNK         0.3459 
    133 H133       35.1610   29.4654    4.4210 H         1 UNK         0.3459 
    134 H134       33.0050   26.4711    6.7740 H         1 UNK         0.0616 
    135 H135       31.7522   27.6522    6.9230 H         1 UNK         0.0616 
    136 H136       31.5660   23.6998    5.6202 H         1 UNK         0.0634 
    137 H137       33.0497   24.5849    5.4031 H         1 UNK         0.0634 
@<TRIPOS>BOND
     1    1    2 1    
     2    1   72 1    
     3    1   73 1    
     4    1   74 1    
     5    2    3 2    
     6    2    4 am   BACKBONE|DICT|INTERRES
     7    4    5 1    
     8    4   75 1    
     9    5    6 1    
    10    5   35 1    
    11    5   76 1    
    12    6    7 1    
    13    6   77 1    
    14    6   78 1    
    15    7    8 1    
    16    8    9 1    
    17    8   79 1    
    18    8   80 1    
    19    9   10 ar   
    20    9   14 ar   
    21   10   11 ar   
    22   10   81 1    
    23   11   12 ar   
    24   11   71 1    
    25   12   13 ar   
    26   12   82 1    
    27   13   14 ar   
    28   13   15 1    
    29   14   83 1    
    30   15   16 1    
    31   15   84 1    
    32   15   85 1    
    33   16   17 1    
    34   17   18 1    
    35   17   86 1    
    36   17   87 1    
    37   18   19 1    
    38   18   37 1    
    39   18   88 1    
    40   19   20 am   BACKBONE|DICT|INTERRES
    41   19   89 1    
    42   20   21 2    
    43   20   22 1    
    44   22   23 1    
    45   22   24 1    
    46   22   90 1    
    47   23   91 1    
    48   23   92 1    
    49   23   93 1    
    50   24   25 am   BACKBONE|DICT|INTERRES
    51   24   94 1    
    52   25   26 2    
    53   25   27 1    
    54   27   28 1    
    55   27   29 1    
    56   27   95 1    
    57   28   96 1    
    58   28   97 1    
    59   28   98 1    
    60   29   30 am   BACKBONE|DICT|INTERRES
    61   29   99 1    
    62   30   31 2    
    63   30   32 1    
    64   32   33 1    
    65   32   34 1    
    66   32  100 1    
    67   33  101 1    
    68   33  102 1    
    69   33  103 1    
    70   34   35 am   BACKBONE|DICT|INTERRES
    71   34  104 1    
    72   35   36 2    
    73   37   38 2    
    74   37   39 am   BACKBONE|DICT|INTERRES
    75   39   40 1    
    76   39  105 1    
    77   40   41 1    
    78   40   42 1    
    79   40  106 1    
    80   41  107 1    
    81   41  108 1    
    82   41  109 1    
    83   42   43 2    
    84   42   44 am   BACKBONE|DICT|INTERRES
    85   44   45 1    
    86   44  110 1    
    87   45   46 1    
    88   45   47 1    
    89   45  111 1    
    90   46  112 1    
    91   46  113 1    
    92   46  114 1    
    93   47   48 2    
    94   47   49 am   BACKBONE|DICT|INTERRES
    95   49   50 1    
    96   49  115 1    
    97   50   51 1    
    98   50   52 1    
    99   50  116 1    
   100   51  117 1    
   101   51  118 1    
   102   51  119 1    
   103   52   53 2    
   104   52   54 am   BACKBONE|DICT|INTERRES
   105   54   55 1    
   106   54  120 1    
   107   55   56 1    
   108   55   57 1    
   109   55  121 1    
   110   56  122 1    
   111   56  123 1    
   112   56  124 1    
   113   57   58 2    
   114   57   59 am   BACKBONE|DICT|INTERRES
   115   59   60 1    
   116   59  125 1    
   117   60   61 1    
   118   60   62 1    
   119   60  126 1    
   120   61  127 1    
   121   61  128 1    
   122   61  129 1    
   123   62   63 2    
   124   62   64 am   BACKBONE|DICT|INTERRES
   125   64   65 1    
   126   64  130 1    
   127   65   66 1    
   128   65   69 1    
   129   65  131 1    
   130   66   67 am   BACKBONE|DICT|INTERRES
   131   66   68 2    
   132   67  132 1    
   133   67  133 1    
   134   69   70 1    
   135   69  134 1    
   136   69  135 1    
   137   70   71 1    
   138   71  136 1    
   139   71  137 1    
@<TRIPOS>SUBSTRUCTURE
     1 UNK         1 GROUP             0       ****    0 ROOT    
