@<TRIPOS>MOLECULE
3R136
137   139    1
SMALL
USER_CHARGES


@<TRIPOS>ATOM
      1 CA         26.3994   22.7753    2.5424 C.3       0 UNK        -0.1979 
      2 C          26.7006   21.7897    1.4226 C.2       0 UNK         0.4864 
      3 O          26.4691   20.5903    1.5824 O.2       0 UNK        -0.5359 
      4 N          27.2184   22.2876    0.2974 N.am      1 UNK        -0.4318 
      5 CA         27.6052   21.5080   -0.8793 C.3       1 UNK         0.0824 
      6 C6         28.9970   20.8266   -0.7184 C.3       12 UNK        -0.0944 
      7 S7         30.3288   21.9898   -0.2375 S.3       12 UNK        -0.2672 
      8 C8         30.6456   21.4724    1.4808 C.3       12 UNK         0.0333 
      9 C9         31.0348   22.6352    2.3846 C.ar      12 UNK        -0.0807 
     10 C10        32.1458   23.4321    2.0879 C.ar      12 UNK        -0.0894 
     11 C11        32.5371   24.4639    2.9483 C.ar      12 UNK        -0.0804 
     12 C12        31.8128   24.6760    4.1272 C.ar      12 UNK        -0.0824 
     13 C13        30.6985   23.8908    4.4364 C.ar      12 UNK        -0.0762 
     14 C14        30.3101   22.8778    3.5558 C.ar      12 UNK        -0.0782 
     15 C15        29.9540   24.0895    5.7521 C.3       12 UNK         0.0230 
     16 S16        29.3732   25.7983    6.0027 S.3       12 UNK        -0.2608 
     17 C17        28.0220   25.9325    4.7835 C.3       12 UNK        -0.0989 
     18 CA         28.0873   27.2380    3.9481 C.3       5 UNK         0.0716 
     19 N          27.3452   27.0811    2.6857 N.am      5 UNK        -0.4135 
     20 C          27.0943   28.0242    1.7682 C.2       4 UNK         0.5031 
     21 O          27.3548   29.2177    1.9115 O.2       4 UNK        -0.5229 
     22 CA         26.5098   27.5467    0.4339 C.3       4 UNK         0.0329 
     23 CB         25.5948   28.6067   -0.2063 C.3       4 UNK        -0.2001 
     24 N          27.6253   27.2673   -0.4655 N.am      4 UNK        -0.4303 
     25 C          28.3096   26.1193   -0.4788 C.2       3 UNK         0.5044 
     26 O          27.9877   25.1178    0.1689 O.2       3 UNK        -0.5152 
     27 CA         29.5829   26.0940   -1.3351 C.3       3 UNK         0.0319 
     28 CB         30.8293   26.0039   -0.4389 C.3       3 UNK        -0.2001 
     29 N          29.5330   24.9327   -2.2143 N.am      3 UNK        -0.4354 
     30 C          28.8835   24.8959   -3.3873 C.2       2 UNK         0.4964 
     31 O          28.4397   25.8915   -3.9603 O.2       2 UNK        -0.5047 
     32 CA         28.6505   23.5021   -4.0012 C.3       2 UNK         0.0288 
     33 CB         29.8108   23.1149   -4.9321 C.3       2 UNK        -0.2113 
     34 N          28.4888   22.4756   -2.9677 N.am      2 UNK        -0.4145 
     35 C          27.4587   22.4230   -2.1098 C.2       1 UNK         0.5006 
     36 O          26.4317   23.0934   -2.2439 O.2       1 UNK        -0.5103 
     37 C          27.6937   28.4736    4.7969 C.2       5 UNK         0.5055 
     38 O          28.5658   29.0967    5.4035 O.2       5 UNK        -0.5220 
     39 N          26.3991   28.8241    4.8054 N.am      6 UNK        -0.4450 
     40 CA         25.8584   29.9939    5.5047 C.3       6 UNK         0.0367 
     41 CB         24.3245   29.8946    5.5356 C.3       6 UNK        -0.1929 
     42 C          26.2928   31.3479    4.9070 C.2       6 UNK         0.5070 
     43 O          26.3205   32.3377    5.6392 O.2       6 UNK        -0.5237 
     44 N          26.6028   31.3797    3.6044 N.am      7 UNK        -0.4739 
     45 CA         27.0260   32.5752    2.8698 C.3       7 UNK         0.0276 
     46 CB         26.2068   32.6774    1.5728 C.3       7 UNK        -0.1927 
     47 C          28.5272   32.5495    2.5434 C.2       7 UNK         0.5013 
     48 O          29.1505   33.6115    2.4914 O.2       7 UNK        -0.5193 
     49 N          29.0846   31.3520    2.3189 N.am      8 UNK        -0.4253 
     50 CA         30.4805   31.0954    1.9640 C.3       8 UNK         0.0242 
     51 CB         30.5916   29.6758    1.3746 C.3       8 UNK        -0.2000 
     52 C          31.4376   31.3106    3.1506 C.2       8 UNK         0.4948 
     53 O          32.0383   30.3561    3.6448 O.2       8 UNK        -0.5275 
     54 N          31.5965   32.5750    3.5659 N.am      9 UNK        -0.4246 
     55 CA         32.4861   33.0238    4.6463 C.3       9 UNK         0.0261 
     56 CB         32.3403   34.5435    4.8224 C.3       9 UNK        -0.1959 
     57 C          33.9673   32.6425    4.4538 C.2       9 UNK         0.5033 
     58 O          34.6884   32.5045    5.4431 O.2       9 UNK        -0.5390 
     59 N          34.3805   32.4254    3.1962 N.am      10 UNK        -0.4215 
     60 CA         35.6848   31.8883    2.7990 C.3       10 UNK         0.0240 
     61 CB         35.7754   31.8758    1.2642 C.3       10 UNK        -0.1982 
     62 C          35.9938   30.4875    3.3661 C.2       10 UNK         0.4970 
     63 O          37.1719   30.1483    3.4867 O.2       10 UNK        -0.4916 
     64 N          34.9584   29.7125    3.7228 N.am      11 UNK        -0.4279 
     65 CA         35.0917   28.4446    4.4561 C.3       11 UNK         0.1003 
     66 C          35.4952   28.6148    5.9525 C.2       11 UNK         0.5709 
     67 N          35.4759   29.8118    6.5301 N.am      11 UNK        -0.7358 
     68 O          35.8471   27.6340    6.6037 O.2       11 UNK        -0.4999 
     69 C69        33.8221   27.5626    4.3270 C.3       12 UNK        -0.0954 
     70 S70        33.4403   27.0978    2.6011 S.3       12 UNK        -0.2268 
     71 C71        33.7690   25.3032    2.6151 C.3       12 UNK         0.0203 
     72 H72        25.3275   22.8070    2.7364 H         1 UNK         0.0888 
     73 H73        26.9041   22.4706    3.4589 H         1 UNK         0.0888 
     74 H74        26.7307   23.7826    2.2916 H         1 UNK         0.0888 
     75 H75        27.3876   23.2891    0.2150 H         1 UNK         0.3017 
     76 H76        26.8641   20.7192   -1.0248 H         1 UNK         0.0873 
     77 H77        28.9189   20.0344    0.0271 H         1 UNK         0.0745 
     78 H78        29.2906   20.3062   -1.6315 H         1 UNK         0.0745 
     79 H79        29.7613   20.9763    1.8832 H         1 UNK         0.0705 
     80 H80        31.4433   20.7284    1.4861 H         1 UNK         0.0705 
     81 H81        32.7099   23.2387    1.1856 H         1 UNK         0.1334 
     82 H82        32.1098   25.4508    4.8168 H         1 UNK         0.1417 
     83 H83        29.4616   22.2536    3.8001 H         1 UNK         0.1562 
     84 H84        30.6260   23.8291    6.5710 H         1 UNK         0.0748 
     85 H85        29.1024   23.4116    5.8303 H         1 UNK         0.0748 
     86 H86        27.0641   25.8386    5.2991 H         1 UNK         0.0940 
     87 H87        28.0857   25.0684    4.1208 H         1 UNK         0.0940 
     88 H88        29.1262   27.3894    3.6472 H         1 UNK         0.0703 
     89 H89        27.1279   26.1300    2.4265 H         1 UNK         0.3081 
     90 H90        25.9201   26.6423    0.6002 H         1 UNK         0.0719 
     91 H91        26.1314   29.5289   -0.4336 H         1 UNK         0.0809 
     92 H92        25.1562   28.2397   -1.1344 H         1 UNK         0.0809 
     93 H93        24.7720   28.8654    0.4613 H         1 UNK         0.0809 
     94 H94        27.9654   28.0458   -1.0117 H         1 UNK         0.2990 
     95 H95        29.6499   27.0059   -1.9325 H         1 UNK         0.0690 
     96 H96        31.7444   25.9657   -1.0298 H         1 UNK         0.0788 
     97 H97        30.8045   25.1186    0.1975 H         1 UNK         0.0788 
     98 H98        30.9032   26.8705    0.2192 H         1 UNK         0.0788 
     99 H99        29.8243   24.0583   -1.7998 H         1 UNK         0.2993 
    100 H100       27.7313   23.5459   -4.5898 H         1 UNK         0.0949 
    101 H101       29.9381   23.8552   -5.7233 H         1 UNK         0.0767 
    102 H102       30.7572   23.0466   -4.3939 H         1 UNK         0.0767 
    103 H103       29.6282   22.1546   -5.4150 H         1 UNK         0.0767 
    104 H104       29.2903   21.8886   -2.7833 H         1 UNK         0.3013 
    105 H105       25.7463   28.2680    4.2728 H         1 UNK         0.3121 
    106 H106       26.2214   29.9640    6.5344 H         1 UNK         0.0774 
    107 H107       23.8904   30.7356    6.0783 H         1 UNK         0.0815 
    108 H108       23.8989   29.9015    4.5314 H         1 UNK         0.0815 
    109 H109       23.9943   28.9844    6.0366 H         1 UNK         0.0815 
    110 H110       26.6122   30.5076    3.0825 H         1 UNK         0.2987 
    111 H111       26.8362   33.4734    3.4615 H         1 UNK         0.0949 
    112 H112       26.3547   31.8073    0.9315 H         1 UNK         0.0806 
    113 H113       25.1406   32.7594    1.7844 H         1 UNK         0.0806 
    114 H114       26.4920   33.5599    0.9984 H         1 UNK         0.0806 
    115 H115       28.4759   30.5362    2.3337 H         1 UNK         0.3010 
    116 H116       30.7682   31.8006    1.1815 H         1 UNK         0.0829 
    117 H117       29.9538   29.5569    0.4988 H         1 UNK         0.0813 
    118 H118       31.6147   29.4592    1.0639 H         1 UNK         0.0813 
    119 H119       30.3069   28.9147    2.1019 H         1 UNK         0.0813 
    120 H120       30.9962   33.2760    3.1407 H         1 UNK         0.3038 
    121 H121       32.1480   32.5375    5.5636 H         1 UNK         0.0769 
    122 H122       32.6344   35.0842    3.9219 H         1 UNK         0.0811 
    123 H123       32.9670   34.9044    5.6395 H         1 UNK         0.0811 
    124 H124       31.3123   34.8190    5.0591 H         1 UNK         0.0811 
    125 H125       33.7104   32.5727    2.4561 H         1 UNK         0.3204 
    126 H126       36.4481   32.5676    3.1841 H         1 UNK         0.0748 
    127 H127       35.6500   32.8763    0.8495 H         1 UNK         0.0771 
    128 H128       36.7489   31.5107    0.9333 H         1 UNK         0.0771 
    129 H129       35.0172   31.2286    0.8207 H         1 UNK         0.0771 
    130 H130       34.0070   30.0462    3.6005 H         1 UNK         0.2980 
    131 H131       35.9119   27.8903    3.9959 H         1 UNK         0.0545 
    132 H132       35.7476   29.8909    7.4968 H         1 UNK         0.3459 
    133 H133       35.1968   30.6425    6.0195 H         1 UNK         0.3459 
    134 H134       32.9543   28.0768    4.7433 H         1 UNK         0.0616 
    135 H135       33.9457   26.6553    4.9189 H         1 UNK         0.0616 
    136 H136       34.1476   25.0347    1.6278 H         1 UNK         0.0634 
    137 H137       34.5712   25.0711    3.3166 H         1 UNK         0.0634 
@<TRIPOS>BOND
     1    1    2 1    
     2    1   72 1    
     3    1   73 1    
     4    1   74 1    
     5    2    3 2    
     6    2    4 am   BACKBONE|DICT|INTERRES
     7    4    5 1    
     8    4   75 1    
     9    5    6 1    
    10    5   35 1    
    11    5   76 1    
    12    6    7 1    
    13    6   77 1    
    14    6   78 1    
    15    7    8 1    
    16    8    9 1    
    17    8   79 1    
    18    8   80 1    
    19    9   10 ar   
    20    9   14 ar   
    21   10   11 ar   
    22   10   81 1    
    23   11   12 ar   
    24   11   71 1    
    25   12   13 ar   
    26   12   82 1    
    27   13   14 ar   
    28   13   15 1    
    29   14   83 1    
    30   15   16 1    
    31   15   84 1    
    32   15   85 1    
    33   16   17 1    
    34   17   18 1    
    35   17   86 1    
    36   17   87 1    
    37   18   19 1    
    38   18   37 1    
    39   18   88 1    
    40   19   20 am   BACKBONE|DICT|INTERRES
    41   19   89 1    
    42   20   21 2    
    43   20   22 1    
    44   22   23 1    
    45   22   24 1    
    46   22   90 1    
    47   23   91 1    
    48   23   92 1    
    49   23   93 1    
    50   24   25 am   BACKBONE|DICT|INTERRES
    51   24   94 1    
    52   25   26 2    
    53   25   27 1    
    54   27   28 1    
    55   27   29 1    
    56   27   95 1    
    57   28   96 1    
    58   28   97 1    
    59   28   98 1    
    60   29   30 am   BACKBONE|DICT|INTERRES
    61   29   99 1    
    62   30   31 2    
    63   30   32 1    
    64   32   33 1    
    65   32   34 1    
    66   32  100 1    
    67   33  101 1    
    68   33  102 1    
    69   33  103 1    
    70   34   35 am   BACKBONE|DICT|INTERRES
    71   34  104 1    
    72   35   36 2    
    73   37   38 2    
    74   37   39 am   BACKBONE|DICT|INTERRES
    75   39   40 1    
    76   39  105 1    
    77   40   41 1    
    78   40   42 1    
    79   40  106 1    
    80   41  107 1    
    81   41  108 1    
    82   41  109 1    
    83   42   43 2    
    84   42   44 am   BACKBONE|DICT|INTERRES
    85   44   45 1    
    86   44  110 1    
    87   45   46 1    
    88   45   47 1    
    89   45  111 1    
    90   46  112 1    
    91   46  113 1    
    92   46  114 1    
    93   47   48 2    
    94   47   49 am   BACKBONE|DICT|INTERRES
    95   49   50 1    
    96   49  115 1    
    97   50   51 1    
    98   50   52 1    
    99   50  116 1    
   100   51  117 1    
   101   51  118 1    
   102   51  119 1    
   103   52   53 2    
   104   52   54 am   BACKBONE|DICT|INTERRES
   105   54   55 1    
   106   54  120 1    
   107   55   56 1    
   108   55   57 1    
   109   55  121 1    
   110   56  122 1    
   111   56  123 1    
   112   56  124 1    
   113   57   58 2    
   114   57   59 am   BACKBONE|DICT|INTERRES
   115   59   60 1    
   116   59  125 1    
   117   60   61 1    
   118   60   62 1    
   119   60  126 1    
   120   61  127 1    
   121   61  128 1    
   122   61  129 1    
   123   62   63 2    
   124   62   64 am   BACKBONE|DICT|INTERRES
   125   64   65 1    
   126   64  130 1    
   127   65   66 1    
   128   65   69 1    
   129   65  131 1    
   130   66   67 am   BACKBONE|DICT|INTERRES
   131   66   68 2    
   132   67  132 1    
   133   67  133 1    
   134   69   70 1    
   135   69  134 1    
   136   69  135 1    
   137   70   71 1    
   138   71  136 1    
   139   71  137 1    
@<TRIPOS>SUBSTRUCTURE
     1 UNK         1 GROUP             0       ****    0 ROOT    
