@<TRIPOS>MOLECULE
3R136
137   139    1
SMALL
USER_CHARGES


@<TRIPOS>ATOM
      1 CA         24.0575   26.0794    3.2622 C.3       0 UNK        -0.1979 
      2 C          24.8733   24.8513    3.6376 C.2       0 UNK         0.4864 
      3 O          24.3943   24.0043    4.3928 O.2       0 UNK        -0.5359 
      4 N          26.0988   24.7517    3.1113 N.am      1 UNK        -0.4318 
      5 CA         26.9828   23.5926    3.2493 C.3       1 UNK         0.0824 
      6 C6         28.4675   24.0301    3.1731 C.3       12 UNK        -0.0944 
      7 S7         29.6827   22.6780    3.3091 S.3       12 UNK        -0.2672 
      8 C8         31.2212   23.6241    3.5918 C.3       12 UNK         0.0333 
      9 C9         31.6631   24.5480    2.4519 C.ar      12 UNK        -0.0807 
     10 C10        32.5817   25.5657    2.7349 C.ar      12 UNK        -0.0894 
     11 C11        33.0499   26.4127    1.7257 C.ar      12 UNK        -0.0804 
     12 C12        32.5765   26.2513    0.4205 C.ar      12 UNK        -0.0824 
     13 C13        31.6596   25.2416    0.1172 C.ar      12 UNK        -0.0762 
     14 C14        31.2197   24.3861    1.1316 C.ar      12 UNK        -0.0782 
     15 C15        31.1812   25.0412   -1.3148 C.3       12 UNK         0.0230 
     16 S16        29.3901   25.3101   -1.4995 S.3       12 UNK        -0.2608 
     17 C17        29.2533   27.1276   -1.3645 C.3       12 UNK        -0.0989 
     18 CA         27.8938   27.6469   -0.8196 C.3       5 UNK         0.0716 
     19 N          26.7507   27.1782   -1.6083 N.am      5 UNK        -0.4135 
     20 C          25.9757   27.9546   -2.3794 C.2       4 UNK         0.5031 
     21 O          26.1798   29.1584   -2.5499 O.2       4 UNK        -0.5229 
     22 CA         24.7797   27.2890   -3.0889 C.3       4 UNK         0.0329 
     23 CB         24.2776   28.0856   -4.3096 C.3       4 UNK        -0.2001 
     24 N          25.1148   25.9274   -3.4956 N.am      4 UNK        -0.4303 
     25 C          24.2979   24.8693   -3.4291 C.2       3 UNK         0.5044 
     26 O          23.1038   24.9329   -3.1320 O.2       3 UNK        -0.5152 
     27 CA         24.9352   23.4889   -3.6962 C.3       3 UNK         0.0319 
     28 CB         26.2039   23.5563   -4.5772 C.3       3 UNK        -0.2001 
     29 N          25.2301   22.7519   -2.4574 N.am      3 UNK        -0.4354 
     30 C          25.8935   23.2156   -1.3869 C.2       2 UNK         0.4964 
     31 O          26.2967   24.3744   -1.2729 O.2       2 UNK        -0.5047 
     32 CA         26.1866   22.2184   -0.2620 C.3       2 UNK         0.0288 
     33 CB         27.3440   21.2788   -0.6553 C.3       2 UNK        -0.2113 
     34 N          26.5485   22.9923    0.9207 N.am      2 UNK        -0.4145 
     35 C          26.6054   22.5481    2.1805 C.2       1 UNK         0.5006 
     36 O          26.3454   21.3904    2.5148 O.2       1 UNK        -0.5103 
     37 C          27.6748   27.2989    0.6639 C.2       5 UNK         0.5055 
     38 O          26.9325   26.3680    0.9917 O.2       5 UNK        -0.5220 
     39 N          28.3264   28.0631    1.5434 N.am      6 UNK        -0.4450 
     40 CA         28.3145   27.8971    2.9907 C.3       6 UNK         0.0367 
     41 CB         27.1222   28.6532    3.6021 C.3       6 UNK        -0.1929 
     42 C          29.6419   28.4338    3.5263 C.2       6 UNK         0.5070 
     43 O          30.2110   29.3453    2.9217 O.2       6 UNK        -0.5237 
     44 N          30.0923   27.8991    4.6670 N.am      7 UNK        -0.4739 
     45 CA         31.3630   28.2295    5.3238 C.3       7 UNK         0.0276 
     46 CB         31.7411   27.0727    6.2692 C.3       7 UNK        -0.1927 
     47 C          31.3523   29.5920    6.0513 C.2       7 UNK         0.5013 
     48 O          31.8410   29.6864    7.1800 O.2       7 UNK        -0.5193 
     49 N          30.8118   30.6300    5.4001 N.am      8 UNK        -0.4253 
     50 CA         30.7606   32.0132    5.8784 C.3       8 UNK         0.0242 
     51 CB         29.9428   32.8597    4.8888 C.3       8 UNK        -0.2000 
     52 C          32.1833   32.5655    6.0475 C.2       8 UNK         0.4948 
     53 O          32.8778   32.7506    5.0467 O.2       8 UNK        -0.5275 
     54 N          32.6191   32.7137    7.3081 N.am      9 UNK        -0.4246 
     55 CA         33.9977   33.0077    7.7306 C.3       9 UNK         0.0261 
     56 CB         34.3748   34.4626    7.3782 C.3       9 UNK        -0.1959 
     57 C          35.0183   31.9803    7.1910 C.2       9 UNK         0.5033 
     58 O          36.1326   32.3562    6.8209 O.2       9 UNK        -0.5390 
     59 N          34.5904   30.7098    7.0906 N.am      10 UNK        -0.4215 
     60 CA         35.2918   29.5814    6.4614 C.3       10 UNK         0.0240 
     61 CB         36.5266   29.1755    7.2939 C.3       10 UNK        -0.1982 
     62 C          35.6279   29.8116    4.9707 C.2       10 UNK         0.4970 
     63 O          36.5787   29.2119    4.4671 O.2       10 UNK        -0.4916 
     64 N          34.8557   30.6813    4.3022 N.am      11 UNK        -0.4279 
     65 CA         35.0885   31.1967    2.9441 C.3       11 UNK         0.1003 
     66 C          36.3313   32.1331    2.8251 C.2       11 UNK         0.5709 
     67 N          36.8946   32.6431    3.9159 N.am      11 UNK        -0.7358 
     68 O          36.7806   32.4336    1.7212 O.2       11 UNK        -0.4999 
     69 C69        35.0435   30.1039    1.8369 C.3       12 UNK        -0.0954 
     70 S70        33.4845   29.1543    1.8222 S.3       12 UNK        -0.2268 
     71 C71        34.1135   27.4607    2.0249 C.3       12 UNK         0.0203 
     72 H72        23.9916   26.7607    4.1100 H         1 UNK         0.0888 
     73 H73        24.4986   26.6168    2.4226 H         1 UNK         0.0888 
     74 H74        23.0468   25.7878    2.9780 H         1 UNK         0.0888 
     75 H75        26.4006   25.4519    2.4334 H         1 UNK         0.3017 
     76 H76        26.8213   23.1358    4.2284 H         1 UNK         0.0873 
     77 H77        28.6564   24.5725    2.2453 H         1 UNK         0.0745 
     78 H78        28.6716   24.7293    3.9844 H         1 UNK         0.0745 
     79 H79        31.0967   24.2033    4.5072 H         1 UNK         0.0705 
     80 H80        32.0257   22.9137    3.7857 H         1 UNK         0.0705 
     81 H81        32.9569   25.6821    3.7418 H         1 UNK         0.1334 
     82 H82        32.9410   26.9034   -0.3617 H         1 UNK         0.1417 
     83 H83        30.5296   23.5940    0.8774 H         1 UNK         0.1562 
     84 H84        31.4131   24.0206   -1.6223 H         1 UNK         0.0748 
     85 H85        31.7148   25.6962   -2.0053 H         1 UNK         0.0748 
     86 H86        29.4221   27.5442   -2.3586 H         1 UNK         0.0940 
     87 H87        30.0722   27.5055   -0.7497 H         1 UNK         0.0940 
     88 H88        27.9321   28.7374   -0.8615 H         1 UNK         0.0703 
     89 H89        26.5109   26.1974   -1.4603 H         1 UNK         0.3081 
     90 H90        23.9776   27.2560   -2.3485 H         1 UNK         0.0719 
     91 H91        25.0526   28.1827   -5.0707 H         1 UNK         0.0809 
     92 H92        23.4144   27.6041   -4.7693 H         1 UNK         0.0809 
     93 H93        23.9690   29.0921   -4.0240 H         1 UNK         0.0809 
     94 H94        26.0890   25.7585   -3.7065 H         1 UNK         0.2990 
     95 H95        24.1882   22.9073   -4.2388 H         1 UNK         0.0690 
     96 H96        26.5247   22.5569   -4.8715 H         1 UNK         0.0788 
     97 H97        27.0430   24.0270   -4.0627 H         1 UNK         0.0788 
     98 H98        26.0187   24.1142   -5.4964 H         1 UNK         0.0788 
     99 H99        24.9109   21.7931   -2.4392 H         1 UNK         0.2993 
    100 H100       25.2830   21.6424   -0.0525 H         1 UNK         0.0949 
    101 H101       27.5632   20.5598    0.1341 H         1 UNK         0.0767 
    102 H102       27.1014   20.7070   -1.5518 H         1 UNK         0.0767 
    103 H103       28.2584   21.8377   -0.8608 H         1 UNK         0.0767 
    104 H104       26.7306   23.9713    0.7176 H         1 UNK         0.3013 
    105 H105       28.9680   28.7805    1.2257 H         1 UNK         0.3121 
    106 H106       28.2414   26.8392    3.2359 H         1 UNK         0.0774 
    107 H107       27.1816   29.7241    3.4036 H         1 UNK         0.0815 
    108 H108       26.1749   28.2935    3.2024 H         1 UNK         0.0815 
    109 H109       27.0882   28.5222    4.6843 H         1 UNK         0.0815 
    110 H110       29.5272   27.2006    5.1282 H         1 UNK         0.2987 
    111 H111       32.1345   28.2960    4.5531 H         1 UNK         0.0949 
    112 H112       31.0323   26.9803    7.0930 H         1 UNK         0.0806 
    113 H113       31.7688   26.1184    5.7466 H         1 UNK         0.0806 
    114 H114       32.7281   27.2242    6.7068 H         1 UNK         0.0806 
    115 H115       30.4972   30.4572    4.4489 H         1 UNK         0.3010 
    116 H116       30.2504   32.0232    6.8438 H         1 UNK         0.0829 
    117 H117       28.9195   32.4933    4.8048 H         1 UNK         0.0813 
    118 H118       29.8902   33.8991    5.2154 H         1 UNK         0.0813 
    119 H119       30.3832   32.8530    3.8906 H         1 UNK         0.0813 
    120 H120       31.9761   32.4936    8.0573 H         1 UNK         0.3038 
    121 H121       34.0176   32.9127    8.8172 H         1 UNK         0.0769 
    122 H122       34.4326   34.6158    6.3000 H         1 UNK         0.0811 
    123 H123       35.3470   34.7272    7.7958 H         1 UNK         0.0811 
    124 H124       33.6484   35.1694    7.7790 H         1 UNK         0.0811 
    125 H125       33.6372   30.5061    7.3829 H         1 UNK         0.3204 
    126 H126       34.5943   28.7440    6.4812 H         1 UNK         0.0748 
    127 H127       36.9673   28.2511    6.9186 H         1 UNK         0.0771 
    128 H128       37.3031   29.9406    7.2649 H         1 UNK         0.0771 
    129 H129       36.2624   29.0050    8.3375 H         1 UNK         0.0771 
    130 H130       34.1241   31.1743    4.8017 H         1 UNK         0.2980 
    131 H131       34.2444   31.8610    2.7565 H         1 UNK         0.0545 
    132 H132       36.5409   32.4317    4.8429 H         1 UNK         0.3459 
    133 H133       37.6888   33.2541    3.8140 H         1 UNK         0.3459 
    134 H134       35.1367   30.5619    0.8510 H         1 UNK         0.0616 
    135 H135       35.8953   29.4293    1.9307 H         1 UNK         0.0616 
    136 H136       34.9548   27.3037    1.3483 H         1 UNK         0.0634 
    137 H137       34.5037   27.3477    3.0376 H         1 UNK         0.0634 
@<TRIPOS>BOND
     1    1    2 1    
     2    1   72 1    
     3    1   73 1    
     4    1   74 1    
     5    2    3 2    
     6    2    4 am   BACKBONE|DICT|INTERRES
     7    4    5 1    
     8    4   75 1    
     9    5    6 1    
    10    5   35 1    
    11    5   76 1    
    12    6    7 1    
    13    6   77 1    
    14    6   78 1    
    15    7    8 1    
    16    8    9 1    
    17    8   79 1    
    18    8   80 1    
    19    9   10 ar   
    20    9   14 ar   
    21   10   11 ar   
    22   10   81 1    
    23   11   12 ar   
    24   11   71 1    
    25   12   13 ar   
    26   12   82 1    
    27   13   14 ar   
    28   13   15 1    
    29   14   83 1    
    30   15   16 1    
    31   15   84 1    
    32   15   85 1    
    33   16   17 1    
    34   17   18 1    
    35   17   86 1    
    36   17   87 1    
    37   18   19 1    
    38   18   37 1    
    39   18   88 1    
    40   19   20 am   BACKBONE|DICT|INTERRES
    41   19   89 1    
    42   20   21 2    
    43   20   22 1    
    44   22   23 1    
    45   22   24 1    
    46   22   90 1    
    47   23   91 1    
    48   23   92 1    
    49   23   93 1    
    50   24   25 am   BACKBONE|DICT|INTERRES
    51   24   94 1    
    52   25   26 2    
    53   25   27 1    
    54   27   28 1    
    55   27   29 1    
    56   27   95 1    
    57   28   96 1    
    58   28   97 1    
    59   28   98 1    
    60   29   30 am   BACKBONE|DICT|INTERRES
    61   29   99 1    
    62   30   31 2    
    63   30   32 1    
    64   32   33 1    
    65   32   34 1    
    66   32  100 1    
    67   33  101 1    
    68   33  102 1    
    69   33  103 1    
    70   34   35 am   BACKBONE|DICT|INTERRES
    71   34  104 1    
    72   35   36 2    
    73   37   38 2    
    74   37   39 am   BACKBONE|DICT|INTERRES
    75   39   40 1    
    76   39  105 1    
    77   40   41 1    
    78   40   42 1    
    79   40  106 1    
    80   41  107 1    
    81   41  108 1    
    82   41  109 1    
    83   42   43 2    
    84   42   44 am   BACKBONE|DICT|INTERRES
    85   44   45 1    
    86   44  110 1    
    87   45   46 1    
    88   45   47 1    
    89   45  111 1    
    90   46  112 1    
    91   46  113 1    
    92   46  114 1    
    93   47   48 2    
    94   47   49 am   BACKBONE|DICT|INTERRES
    95   49   50 1    
    96   49  115 1    
    97   50   51 1    
    98   50   52 1    
    99   50  116 1    
   100   51  117 1    
   101   51  118 1    
   102   51  119 1    
   103   52   53 2    
   104   52   54 am   BACKBONE|DICT|INTERRES
   105   54   55 1    
   106   54  120 1    
   107   55   56 1    
   108   55   57 1    
   109   55  121 1    
   110   56  122 1    
   111   56  123 1    
   112   56  124 1    
   113   57   58 2    
   114   57   59 am   BACKBONE|DICT|INTERRES
   115   59   60 1    
   116   59  125 1    
   117   60   61 1    
   118   60   62 1    
   119   60  126 1    
   120   61  127 1    
   121   61  128 1    
   122   61  129 1    
   123   62   63 2    
   124   62   64 am   BACKBONE|DICT|INTERRES
   125   64   65 1    
   126   64  130 1    
   127   65   66 1    
   128   65   69 1    
   129   65  131 1    
   130   66   67 am   BACKBONE|DICT|INTERRES
   131   66   68 2    
   132   67  132 1    
   133   67  133 1    
   134   69   70 1    
   135   69  134 1    
   136   69  135 1    
   137   70   71 1    
   138   71  136 1    
   139   71  137 1    
@<TRIPOS>SUBSTRUCTURE
     1 UNK         1 GROUP             0       ****    0 ROOT    
