@<TRIPOS>MOLECULE
3R136
137   139    1
SMALL
USER_CHARGES


@<TRIPOS>ATOM
      1 CA         30.0660   24.9093   -5.0776 C.3       0 UNK        -0.1979 
      2 C          29.4955   25.1353   -3.6860 C.2       0 UNK         0.4864 
      3 O          28.3546   25.5800   -3.5605 O.2       0 UNK        -0.5359 
      4 N          30.2721   24.8125   -2.6400 N.am      1 UNK        -0.4318 
      5 CA         29.9338   24.9993   -1.2198 C.3       1 UNK         0.0824 
      6 C6         31.1140   24.5781   -0.3086 C.3       12 UNK        -0.0944 
      7 S7         31.0485   25.3752    1.3278 S.3       12 UNK        -0.2672 
      8 C8         30.8711   23.9401    2.4294 C.3       12 UNK         0.0333 
      9 C9         30.5496   24.3901    3.8458 C.ar      12 UNK        -0.0807 
     10 C10        31.5516   24.9248    4.6617 C.ar      12 UNK        -0.0894 
     11 C11        31.2501   25.3732    5.9509 C.ar      12 UNK        -0.0804 
     12 C12        29.9352   25.2878    6.4185 C.ar      12 UNK        -0.0824 
     13 C13        28.9223   24.7510    5.6166 C.ar      12 UNK        -0.0762 
     14 C14        29.2446   24.2859    4.3358 C.ar      12 UNK        -0.0782 
     15 C15        27.4992   24.6713    6.1713 C.3       12 UNK         0.0230 
     16 S16        26.1680   24.8813    4.9352 S.3       12 UNK        -0.2608 
     17 C17        26.5467   26.5199    4.2223 C.3       12 UNK        -0.0989 
     18 CA         26.7718   26.4339    2.6862 C.3       5 UNK         0.0716 
     19 N          25.5995   25.9532    1.9415 N.am      5 UNK        -0.4135 
     20 C          24.4062   26.5599    1.8531 C.2       4 UNK         0.5031 
     21 O          24.1379   27.6373    2.3889 O.2       4 UNK        -0.5229 
     22 CA         23.3260   25.8190    1.0388 C.3       4 UNK         0.0329 
     23 CB         22.0313   26.6417    0.8609 C.3       4 UNK        -0.2001 
     24 N          23.8092   25.3295   -0.2577 N.am      4 UNK        -0.4303 
     25 C          24.2964   26.0477   -1.2795 C.2       3 UNK         0.5044 
     26 O          24.4309   27.2715   -1.2570 O.2       3 UNK        -0.5152 
     27 CA         24.7016   25.2468   -2.5364 C.3       3 UNK         0.0319 
     28 CB         25.0677   26.1584   -3.7223 C.3       3 UNK        -0.2001 
     29 N          25.8202   24.3364   -2.2736 N.am      3 UNK        -0.4354 
     30 C          25.7441   23.1978   -1.5657 C.2       2 UNK         0.4964 
     31 O          24.6846   22.7531   -1.1201 O.2       2 UNK        -0.5047 
     32 CA         27.0457   22.4249   -1.2712 C.3       2 UNK         0.0288 
     33 CB         27.1211   21.1553   -2.1352 C.3       2 UNK        -0.2113 
     34 N          28.2800   23.1931   -1.4514 N.am      2 UNK        -0.4145 
     35 C          28.6135   24.3153   -0.7964 C.2       1 UNK         0.5006 
     36 O          27.9043   24.8385    0.0652 O.2       1 UNK        -0.5103 
     37 C          27.3198   27.7377    2.0746 C.2       5 UNK         0.5055 
     38 O          27.5037   28.7345    2.7777 O.2       5 UNK        -0.5220 
     39 N          27.5926   27.7014    0.7634 N.am      6 UNK        -0.4450 
     40 CA         28.1728   28.7994   -0.0168 C.3       6 UNK         0.0367 
     41 CB         27.7957   28.6193   -1.4984 C.3       6 UNK        -0.1929 
     42 C          29.6955   28.9041    0.2046 C.2       6 UNK         0.5070 
     43 O          30.4717   28.8337   -0.7489 O.2       6 UNK        -0.5237 
     44 N          30.0932   29.0372    1.4745 N.am      7 UNK        -0.4739 
     45 CA         31.4824   29.0012    1.9317 C.3       7 UNK         0.0276 
     46 CB         31.5044   28.4798    3.3764 C.3       7 UNK        -0.1927 
     47 C          32.1953   30.3584    1.8580 C.2       7 UNK         0.5013 
     48 O          33.4097   30.3959    2.0505 O.2       7 UNK        -0.5193 
     49 N          31.4420   31.4508    1.6505 N.am      8 UNK        -0.4253 
     50 CA         31.9097   32.8464    1.5903 C.3       8 UNK         0.0242 
     51 CB         32.7011   33.0865    0.2869 C.3       8 UNK        -0.2000 
     52 C          32.6918   33.2936    2.8469 C.2       8 UNK         0.4948 
     53 O          33.6156   34.1021    2.7419 O.2       8 UNK        -0.5275 
     54 N          32.3151   32.7318    4.0068 N.am      9 UNK        -0.4246 
     55 CA         32.9383   32.8881    5.3270 C.3       9 UNK         0.0261 
     56 CB         32.8126   34.3428    5.8300 C.3       9 UNK        -0.1959 
     57 C          34.3839   32.3497    5.4220 C.2       9 UNK         0.5033 
     58 O          35.1131   32.7536    6.3295 O.2       9 UNK        -0.5390 
     59 N          34.7776   31.4282    4.5275 N.am      10 UNK        -0.4215 
     60 CA         36.1024   30.7923    4.5239 C.3       10 UNK         0.0240 
     61 CB         36.4112   30.2715    3.1098 C.3       10 UNK        -0.1982 
     62 C          36.2642   29.6629    5.5629 C.2       10 UNK         0.4970 
     63 O          37.3643   29.1192    5.6740 O.2       10 UNK        -0.4916 
     64 N          35.1868   29.3106    6.2789 N.am      11 UNK        -0.4279 
     65 CA         35.1428   28.2830    7.3317 C.3       11 UNK         0.1003 
     66 C          36.1690   28.5245    8.4747 C.2       11 UNK         0.5709 
     67 N          36.7995   27.4716    8.9777 N.am      11 UNK        -0.7358 
     68 O          36.3602   29.6475    8.9382 O.2       11 UNK        -0.4999 
     69 C69        33.7174   28.1425    7.9280 C.3       12 UNK        -0.0954 
     70 S70        32.4448   27.7531    6.6827 S.3       12 UNK        -0.2268 
     71 C71        32.3410   25.9456    6.8436 C.3       12 UNK         0.0203 
     72 H72        30.0992   25.8510   -5.6246 H         1 UNK         0.0888 
     73 H73        31.0755   24.5001   -5.0444 H         1 UNK         0.0888 
     74 H74        29.4356   24.2150   -5.6324 H         1 UNK         0.0888 
     75 H75        31.1955   24.4440   -2.8199 H         1 UNK         0.3017 
     76 H76        29.7805   26.0727   -1.0963 H         1 UNK         0.0873 
     77 H77        31.1750   23.4924   -0.2094 H         1 UNK         0.0745 
     78 H78        32.0595   24.8875   -0.7571 H         1 UNK         0.0745 
     79 H79        30.0846   23.2861    2.0488 H         1 UNK         0.0705 
     80 H80        31.7941   23.3586    2.4229 H         1 UNK         0.0705 
     81 H81        32.5625   25.0060    4.2857 H         1 UNK         0.1334 
     82 H82        29.7024   25.6419    7.4138 H         1 UNK         0.1417 
     83 H83        28.4758   23.8550    3.7098 H         1 UNK         0.1562 
     84 H84        27.3568   25.4243    6.9482 H         1 UNK         0.0748 
     85 H85        27.3717   23.7025    6.6557 H         1 UNK         0.0748 
     86 H86        27.4324   26.9264    4.7142 H         1 UNK         0.0940 
     87 H87        25.7340   27.2068    4.4631 H         1 UNK         0.0940 
     88 H88        27.5566   25.6965    2.5191 H         1 UNK         0.0703 
     89 H89        25.7390   25.0920    1.4322 H         1 UNK         0.3081 
     90 H90        23.0693   24.9324    1.6206 H         1 UNK         0.0719 
     91 H91        22.2128   27.5711    0.3199 H         1 UNK         0.0809 
     92 H92        21.2744   26.0782    0.3156 H         1 UNK         0.0809 
     93 H93        21.6014   26.9078    1.8274 H         1 UNK         0.0809 
     94 H94        23.8027   24.3203   -0.3829 H         1 UNK         0.2990 
     95 H95        23.8353   24.6525   -2.8349 H         1 UNK         0.0690 
     96 H96        25.3138   25.5761   -4.6104 H         1 UNK         0.0788 
     97 H97        25.9237   26.7943   -3.4927 H         1 UNK         0.0788 
     98 H98        24.2356   26.8135   -3.9833 H         1 UNK         0.0788 
     99 H99        26.7295   24.6491   -2.5989 H         1 UNK         0.2993 
    100 H100       27.0017   22.1248   -0.2221 H         1 UNK         0.0949 
    101 H101       26.2324   20.5365   -2.0012 H         1 UNK         0.0767 
    102 H102       27.1944   21.3944   -3.1970 H         1 UNK         0.0767 
    103 H103       27.9817   20.5420   -1.8672 H         1 UNK         0.0767 
    104 H104       28.9170   22.8576   -2.1590 H         1 UNK         0.3013 
    105 H105       27.4871   26.8091    0.2913 H         1 UNK         0.3121 
    106 H106       27.7339   29.7404    0.3217 H         1 UNK         0.0774 
    107 H107       28.1718   27.6802   -1.9025 H         1 UNK         0.0815 
    108 H108       28.2052   29.4250   -2.1089 H         1 UNK         0.0815 
    109 H109       26.7148   28.6319   -1.6352 H         1 UNK         0.0815 
    110 H110       29.3703   29.0678    2.1879 H         1 UNK         0.2987 
    111 H111       32.0442   28.3038    1.3061 H         1 UNK         0.0949 
    112 H112       31.0176   29.1689    4.0674 H         1 UNK         0.0806 
    113 H113       31.0017   27.5168    3.4621 H         1 UNK         0.0806 
    114 H114       32.5295   28.3376    3.7207 H         1 UNK         0.0806 
    115 H115       30.4492   31.3081    1.5271 H         1 UNK         0.3010 
    116 H116       31.0157   33.4709    1.5547 H         1 UNK         0.0829 
    117 H117       33.6415   32.5341    0.2793 H         1 UNK         0.0813 
    118 H118       32.1267   32.7821   -0.5880 H         1 UNK         0.0813 
    119 H119       32.9429   34.1428    0.1621 H         1 UNK         0.0813 
    120 H120       31.5398   32.0848    3.9701 H         1 UNK         0.3038 
    121 H121       32.3529   32.2631    6.0031 H         1 UNK         0.0769 
    122 H122       33.4368   35.0264    5.2539 H         1 UNK         0.0811 
    123 H123       33.1208   34.4257    6.8730 H         1 UNK         0.0811 
    124 H124       31.7834   34.6966    5.7707 H         1 UNK         0.0811 
    125 H125       34.1491   31.1554    3.7768 H         1 UNK         0.3204 
    126 H126       36.8471   31.5539    4.7647 H         1 UNK         0.0748 
    127 H127       37.4393   29.9140    3.0395 H         1 UNK         0.0771 
    128 H128       35.7603   29.4402    2.8362 H         1 UNK         0.0771 
    129 H129       36.2894   31.0543    2.3607 H         1 UNK         0.0771 
    130 H130       34.3249   29.8068    6.1184 H         1 UNK         0.2980 
    131 H131       35.3998   27.3385    6.8483 H         1 UNK         0.0545 
    132 H132       37.4555   27.6083    9.7307 H         1 UNK         0.3459 
    133 H133       36.6411   26.5446    8.6144 H         1 UNK         0.3459 
    134 H134       33.6982   27.3728    8.7019 H         1 UNK         0.0616 
    135 H135       33.4224   29.0703    8.4220 H         1 UNK         0.0616 
    136 H136       33.3070   25.5055    6.5913 H         1 UNK         0.0634 
    137 H137       32.1419   25.6831    7.8838 H         1 UNK         0.0634 
@<TRIPOS>BOND
     1    1    2 1    
     2    1   72 1    
     3    1   73 1    
     4    1   74 1    
     5    2    3 2    
     6    2    4 am   BACKBONE|DICT|INTERRES
     7    4    5 1    
     8    4   75 1    
     9    5    6 1    
    10    5   35 1    
    11    5   76 1    
    12    6    7 1    
    13    6   77 1    
    14    6   78 1    
    15    7    8 1    
    16    8    9 1    
    17    8   79 1    
    18    8   80 1    
    19    9   10 ar   
    20    9   14 ar   
    21   10   11 ar   
    22   10   81 1    
    23   11   12 ar   
    24   11   71 1    
    25   12   13 ar   
    26   12   82 1    
    27   13   14 ar   
    28   13   15 1    
    29   14   83 1    
    30   15   16 1    
    31   15   84 1    
    32   15   85 1    
    33   16   17 1    
    34   17   18 1    
    35   17   86 1    
    36   17   87 1    
    37   18   19 1    
    38   18   37 1    
    39   18   88 1    
    40   19   20 am   BACKBONE|DICT|INTERRES
    41   19   89 1    
    42   20   21 2    
    43   20   22 1    
    44   22   23 1    
    45   22   24 1    
    46   22   90 1    
    47   23   91 1    
    48   23   92 1    
    49   23   93 1    
    50   24   25 am   BACKBONE|DICT|INTERRES
    51   24   94 1    
    52   25   26 2    
    53   25   27 1    
    54   27   28 1    
    55   27   29 1    
    56   27   95 1    
    57   28   96 1    
    58   28   97 1    
    59   28   98 1    
    60   29   30 am   BACKBONE|DICT|INTERRES
    61   29   99 1    
    62   30   31 2    
    63   30   32 1    
    64   32   33 1    
    65   32   34 1    
    66   32  100 1    
    67   33  101 1    
    68   33  102 1    
    69   33  103 1    
    70   34   35 am   BACKBONE|DICT|INTERRES
    71   34  104 1    
    72   35   36 2    
    73   37   38 2    
    74   37   39 am   BACKBONE|DICT|INTERRES
    75   39   40 1    
    76   39  105 1    
    77   40   41 1    
    78   40   42 1    
    79   40  106 1    
    80   41  107 1    
    81   41  108 1    
    82   41  109 1    
    83   42   43 2    
    84   42   44 am   BACKBONE|DICT|INTERRES
    85   44   45 1    
    86   44  110 1    
    87   45   46 1    
    88   45   47 1    
    89   45  111 1    
    90   46  112 1    
    91   46  113 1    
    92   46  114 1    
    93   47   48 2    
    94   47   49 am   BACKBONE|DICT|INTERRES
    95   49   50 1    
    96   49  115 1    
    97   50   51 1    
    98   50   52 1    
    99   50  116 1    
   100   51  117 1    
   101   51  118 1    
   102   51  119 1    
   103   52   53 2    
   104   52   54 am   BACKBONE|DICT|INTERRES
   105   54   55 1    
   106   54  120 1    
   107   55   56 1    
   108   55   57 1    
   109   55  121 1    
   110   56  122 1    
   111   56  123 1    
   112   56  124 1    
   113   57   58 2    
   114   57   59 am   BACKBONE|DICT|INTERRES
   115   59   60 1    
   116   59  125 1    
   117   60   61 1    
   118   60   62 1    
   119   60  126 1    
   120   61  127 1    
   121   61  128 1    
   122   61  129 1    
   123   62   63 2    
   124   62   64 am   BACKBONE|DICT|INTERRES
   125   64   65 1    
   126   64  130 1    
   127   65   66 1    
   128   65   69 1    
   129   65  131 1    
   130   66   67 am   BACKBONE|DICT|INTERRES
   131   66   68 2    
   132   67  132 1    
   133   67  133 1    
   134   69   70 1    
   135   69  134 1    
   136   69  135 1    
   137   70   71 1    
   138   71  136 1    
   139   71  137 1    
@<TRIPOS>SUBSTRUCTURE
     1 UNK         1 GROUP             0       ****    0 ROOT    
