@<TRIPOS>MOLECULE
3R136
137   139    1
SMALL
USER_CHARGES


@<TRIPOS>ATOM
      1 CA         35.7946   27.9808    4.3637 C.3       0 UNK        -0.1979 
      2 C          35.0041   27.0490    3.4580 C.2       0 UNK         0.4864 
      3 O          35.4804   25.9564    3.1467 O.2       0 UNK        -0.5359 
      4 N          33.8124   27.4719    3.0233 N.am      1 UNK        -0.4318 
      5 CA         32.9381   26.7337    2.1132 C.3       1 UNK         0.0824 
      6 C6         33.5053   26.6910    0.6671 C.3       12 UNK        -0.0944 
      7 S7         32.4993   25.8004   -0.5686 S.3       12 UNK        -0.2672 
      8 C8         32.8511   24.0537   -0.1941 C.3       12 UNK         0.0333 
      9 C9         31.7488   23.4762    0.6769 C.ar      12 UNK        -0.0807 
     10 C10        31.9305   23.3312    2.0531 C.ar      12 UNK        -0.0894 
     11 C11        30.8745   22.9227    2.8700 C.ar      12 UNK        -0.0804 
     12 C12        29.6512   22.5675    2.2864 C.ar      12 UNK        -0.0824 
     13 C13        29.4788   22.6472    0.8978 C.ar      12 UNK        -0.0762 
     14 C14        30.5269   23.1175    0.1031 C.ar      12 UNK        -0.0782 
     15 C15        28.1775   22.2020    0.2411 C.3       12 UNK         0.0230 
     16 S16        26.8933   23.4920    0.2512 S.3       12 UNK        -0.2608 
     17 C17        27.5932   24.7802   -0.8453 C.3       12 UNK        -0.0989 
     18 CA         26.5252   25.8316   -1.2547 C.3       5 UNK         0.0716 
     19 N          25.8985   26.4557   -0.0861 N.am      5 UNK        -0.4135 
     20 C          24.5847   26.6431    0.0999 C.2       4 UNK         0.5031 
     21 O          23.7172   26.2539   -0.6820 O.2       4 UNK        -0.5229 
     22 CA         24.1612   27.4287    1.3578 C.3       4 UNK         0.0329 
     23 CB         23.7040   26.4609    2.4612 C.3       4 UNK        -0.2001 
     24 N          25.2162   28.2984    1.8898 N.am      4 UNK        -0.4303 
     25 C          25.7400   29.3571    1.2529 C.2       3 UNK         0.5044 
     26 O          25.3278   29.7766    0.1722 O.2       3 UNK        -0.5152 
     27 CA         26.9952   29.9872    1.8824 C.3       3 UNK         0.0319 
     28 CB         26.6206   31.1073    2.8640 C.3       3 UNK        -0.2001 
     29 N          27.8420   28.9984    2.5602 N.am      3 UNK        -0.4354 
     30 C          28.4780   27.9950    1.9385 C.2       2 UNK         0.4964 
     31 O          28.4507   27.8239    0.7199 O.2       2 UNK        -0.5047 
     32 CA         29.1578   26.9541    2.8406 C.3       2 UNK         0.0288 
     33 CB         28.2586   25.7164    2.9621 C.3       2 UNK        -0.2113 
     34 N          30.5029   26.5464    2.4188 N.am      2 UNK        -0.4145 
     35 C          31.5453   27.3681    2.2273 C.2       1 UNK         0.5006 
     36 O          31.4564   28.5952    2.1825 O.2       1 UNK        -0.5103 
     37 C          27.0836   26.9154   -2.2114 C.2       5 UNK         0.5055 
     38 O          27.9166   26.5998   -3.0622 O.2       5 UNK        -0.5220 
     39 N          26.5948   28.1612   -2.0749 N.am      6 UNK        -0.4450 
     40 CA         26.8732   29.3491   -2.8889 C.3       6 UNK         0.0367 
     41 CB         26.4656   29.1252   -4.3619 C.3       6 UNK        -0.1929 
     42 C          28.2989   29.9142   -2.7352 C.2       6 UNK         0.5070 
     43 O          28.7990   30.5388   -3.6733 O.2       6 UNK        -0.5237 
     44 N          28.9207   29.7208   -1.5644 N.am      7 UNK        -0.4739 
     45 CA         30.2394   30.2592   -1.2261 C.3       7 UNK         0.0276 
     46 CB         31.2220   29.0972   -1.0145 C.3       7 UNK        -0.1927 
     47 C          30.1453   31.2826   -0.0758 C.2       7 UNK         0.5013 
     48 O          29.3577   32.2234   -0.1940 O.2       7 UNK        -0.5193 
     49 N          30.9778   31.1479    0.9671 N.am      8 UNK        -0.4253 
     50 CA         31.3000   32.2187    1.9225 C.3       8 UNK         0.0242 
     51 CB         32.8092   32.5045    1.8189 C.3       8 UNK        -0.2000 
     52 C          30.9261   31.9259    3.3879 C.2       8 UNK         0.4948 
     53 O          31.0153   32.8457    4.2025 O.2       8 UNK        -0.5275 
     54 N          30.5376   30.6826    3.6999 N.am      9 UNK        -0.4246 
     55 CA         30.3413   30.0967    5.0338 C.3       9 UNK         0.0261 
     56 CB         29.4789   30.9788    5.9674 C.3       9 UNK        -0.1959 
     57 C          31.6774   29.6340    5.6482 C.2       9 UNK         0.5033 
     58 O          32.6642   29.4817    4.9241 O.2       9 UNK        -0.5390 
     59 N          31.6678   29.3823    6.9653 N.am      10 UNK        -0.4215 
     60 CA         32.7991   28.9599    7.8010 C.3       10 UNK         0.0240 
     61 CB         33.8963   30.0478    7.8331 C.3       10 UNK        -0.1982 
     62 C          33.3483   27.5580    7.4605 C.2       10 UNK         0.4970 
     63 O          34.5639   27.3862    7.3609 O.2       10 UNK        -0.4916 
     64 N          32.4524   26.5666    7.3380 N.am      11 UNK        -0.4279 
     65 CA         32.8140   25.1368    7.2323 C.3       11 UNK         0.1003 
     66 C          33.4732   24.5417    8.5136 C.2       11 UNK         0.5709 
     67 N          33.3335   25.1543    9.6840 N.am      11 UNK        -0.7358 
     68 O          34.1271   23.5039    8.4404 O.2       11 UNK        -0.4999 
     69 C69        31.6086   24.2586    6.7978 C.3       12 UNK        -0.0954 
     70 S70        31.1101   24.5721    5.0764 S.3       12 UNK        -0.2268 
     71 C71        31.0746   22.8858    4.3792 C.3       12 UNK         0.0203 
     72 H72        36.1856   27.4314    5.2194 H         1 UNK         0.0888 
     73 H73        36.6368   28.4067    3.8196 H         1 UNK         0.0888 
     74 H74        35.1830   28.7993    4.7412 H         1 UNK         0.0888 
     75 H75        33.4188   28.3427    3.3763 H         1 UNK         0.3017 
     76 H76        32.8767   25.7244    2.5060 H         1 UNK         0.0873 
     77 H77        34.4995   26.2430    0.6664 H         1 UNK         0.0745 
     78 H78        33.6488   27.7086    0.3011 H         1 UNK         0.0745 
     79 H79        32.9069   23.4951   -1.1297 H         1 UNK         0.0705 
     80 H80        33.8270   23.9519    0.2832 H         1 UNK         0.0705 
     81 H81        32.8852   23.5709    2.5008 H         1 UNK         0.1334 
     82 H82        28.8334   22.2305    2.9087 H         1 UNK         0.1417 
     83 H83        30.3914   23.2128   -0.9659 H         1 UNK         0.1562 
     84 H84        27.7922   21.3254    0.7639 H         1 UNK         0.0748 
     85 H85        28.3568   21.8821   -0.7866 H         1 UNK         0.0748 
     86 H86        28.0033   24.2912   -1.7309 H         1 UNK         0.0940 
     87 H87        28.4351   25.2607   -0.3431 H         1 UNK         0.0940 
     88 H88        25.7622   25.3024   -1.8292 H         1 UNK         0.0703 
     89 H89        26.5514   26.8420    0.5827 H         1 UNK         0.3081 
     90 H90        23.3149   28.0607    1.0801 H         1 UNK         0.0719 
     91 H91        22.8925   25.8230    2.1077 H         1 UNK         0.0809 
     92 H92        24.5135   25.8057    2.7860 H         1 UNK         0.0809 
     93 H93        23.3331   26.9983    3.3341 H         1 UNK         0.0809 
     94 H94        25.6090   28.0372    2.7820 H         1 UNK         0.2990 
     95 H95        27.5754   30.4304    1.0720 H         1 UNK         0.0690 
     96 H96        27.5085   31.6283    3.2226 H         1 UNK         0.0788 
     97 H97        26.0774   30.7270    3.7299 H         1 UNK         0.0788 
     98 H98        25.9862   31.8518    2.3808 H         1 UNK         0.0788 
     99 H99        27.8822   29.0628    3.5666 H         1 UNK         0.2993 
    100 H100       29.2588   27.3681    3.8412 H         1 UNK         0.0949 
    101 H101       28.2568   25.1469    2.0372 H         1 UNK         0.0767 
    102 H102       28.5907   25.0519    3.7579 H         1 UNK         0.0767 
    103 H103       27.2256   25.9853    3.1859 H         1 UNK         0.0767 
    104 H104       30.6672   25.5494    2.3891 H         1 UNK         0.3013 
    105 H105       25.9445   28.3282   -1.3163 H         1 UNK         0.3121 
    106 H106       26.2172   30.1265   -2.4943 H         1 UNK         0.0774 
    107 H107       25.4466   28.7465   -4.4396 H         1 UNK         0.0815 
    108 H108       26.5051   30.0581   -4.9253 H         1 UNK         0.0815 
    109 H109       27.1273   28.4179   -4.8624 H         1 UNK         0.0815 
    110 H110       28.4683   29.1684   -0.8434 H         1 UNK         0.2987 
    111 H111       30.6341   30.8399   -2.0623 H         1 UNK         0.0949 
    112 H112       31.3870   28.5614   -1.9494 H         1 UNK         0.0806 
    113 H113       32.1994   29.4371   -0.6718 H         1 UNK         0.0806 
    114 H114       30.8341   28.3729   -0.3030 H         1 UNK         0.0806 
    115 H115       31.4969   30.2816    1.0691 H         1 UNK         0.3010 
    116 H116       30.7695   33.1341    1.6519 H         1 UNK         0.0829 
    117 H117       33.0904   32.7928    0.8058 H         1 UNK         0.0813 
    118 H118       33.1024   33.3224    2.4787 H         1 UNK         0.0813 
    119 H119       33.4024   31.6323    2.0978 H         1 UNK         0.0813 
    120 H120       30.6562   29.9865    2.9665 H         1 UNK         0.3038 
    121 H121       29.7749   29.1860    4.8686 H         1 UNK         0.0769 
    122 H122       29.0900   30.4067    6.8100 H         1 UNK         0.0811 
    123 H123       28.6168   31.3891    5.4422 H         1 UNK         0.0811 
    124 H124       30.0462   31.8153    6.3773 H         1 UNK         0.0811 
    125 H125       30.7975   29.5250    7.4590 H         1 UNK         0.3204 
    126 H126       32.4056   28.8795    8.8154 H         1 UNK         0.0748 
    127 H127       33.4866   31.0165    8.1192 H         1 UNK         0.0771 
    128 H128       34.6727   29.7995    8.5580 H         1 UNK         0.0771 
    129 H129       34.3837   30.1635    6.8646 H         1 UNK         0.0771 
    130 H130       31.4691   26.7741    7.4230 H         1 UNK         0.2980 
    131 H131       33.5748   25.0582    6.4527 H         1 UNK         0.0545 
    132 H132       33.7693   24.7571   10.5014 H         1 UNK         0.3459 
    133 H133       32.7917   25.9990    9.7626 H         1 UNK         0.3459 
    134 H134       31.8472   23.1975    6.8932 H         1 UNK         0.0616 
    135 H135       30.7504   24.4324    7.4489 H         1 UNK         0.0616 
    136 H136       30.2810   22.3134    4.8618 H         1 UNK         0.0634 
    137 H137       32.0127   22.3767    4.6060 H         1 UNK         0.0634 
@<TRIPOS>BOND
     1    1    2 1    
     2    1   72 1    
     3    1   73 1    
     4    1   74 1    
     5    2    3 2    
     6    2    4 am   BACKBONE|DICT|INTERRES
     7    4    5 1    
     8    4   75 1    
     9    5    6 1    
    10    5   35 1    
    11    5   76 1    
    12    6    7 1    
    13    6   77 1    
    14    6   78 1    
    15    7    8 1    
    16    8    9 1    
    17    8   79 1    
    18    8   80 1    
    19    9   10 ar   
    20    9   14 ar   
    21   10   11 ar   
    22   10   81 1    
    23   11   12 ar   
    24   11   71 1    
    25   12   13 ar   
    26   12   82 1    
    27   13   14 ar   
    28   13   15 1    
    29   14   83 1    
    30   15   16 1    
    31   15   84 1    
    32   15   85 1    
    33   16   17 1    
    34   17   18 1    
    35   17   86 1    
    36   17   87 1    
    37   18   19 1    
    38   18   37 1    
    39   18   88 1    
    40   19   20 am   BACKBONE|DICT|INTERRES
    41   19   89 1    
    42   20   21 2    
    43   20   22 1    
    44   22   23 1    
    45   22   24 1    
    46   22   90 1    
    47   23   91 1    
    48   23   92 1    
    49   23   93 1    
    50   24   25 am   BACKBONE|DICT|INTERRES
    51   24   94 1    
    52   25   26 2    
    53   25   27 1    
    54   27   28 1    
    55   27   29 1    
    56   27   95 1    
    57   28   96 1    
    58   28   97 1    
    59   28   98 1    
    60   29   30 am   BACKBONE|DICT|INTERRES
    61   29   99 1    
    62   30   31 2    
    63   30   32 1    
    64   32   33 1    
    65   32   34 1    
    66   32  100 1    
    67   33  101 1    
    68   33  102 1    
    69   33  103 1    
    70   34   35 am   BACKBONE|DICT|INTERRES
    71   34  104 1    
    72   35   36 2    
    73   37   38 2    
    74   37   39 am   BACKBONE|DICT|INTERRES
    75   39   40 1    
    76   39  105 1    
    77   40   41 1    
    78   40   42 1    
    79   40  106 1    
    80   41  107 1    
    81   41  108 1    
    82   41  109 1    
    83   42   43 2    
    84   42   44 am   BACKBONE|DICT|INTERRES
    85   44   45 1    
    86   44  110 1    
    87   45   46 1    
    88   45   47 1    
    89   45  111 1    
    90   46  112 1    
    91   46  113 1    
    92   46  114 1    
    93   47   48 2    
    94   47   49 am   BACKBONE|DICT|INTERRES
    95   49   50 1    
    96   49  115 1    
    97   50   51 1    
    98   50   52 1    
    99   50  116 1    
   100   51  117 1    
   101   51  118 1    
   102   51  119 1    
   103   52   53 2    
   104   52   54 am   BACKBONE|DICT|INTERRES
   105   54   55 1    
   106   54  120 1    
   107   55   56 1    
   108   55   57 1    
   109   55  121 1    
   110   56  122 1    
   111   56  123 1    
   112   56  124 1    
   113   57   58 2    
   114   57   59 am   BACKBONE|DICT|INTERRES
   115   59   60 1    
   116   59  125 1    
   117   60   61 1    
   118   60   62 1    
   119   60  126 1    
   120   61  127 1    
   121   61  128 1    
   122   61  129 1    
   123   62   63 2    
   124   62   64 am   BACKBONE|DICT|INTERRES
   125   64   65 1    
   126   64  130 1    
   127   65   66 1    
   128   65   69 1    
   129   65  131 1    
   130   66   67 am   BACKBONE|DICT|INTERRES
   131   66   68 2    
   132   67  132 1    
   133   67  133 1    
   134   69   70 1    
   135   69  134 1    
   136   69  135 1    
   137   70   71 1    
   138   71  136 1    
   139   71  137 1    
@<TRIPOS>SUBSTRUCTURE
     1 UNK         1 GROUP             0       ****    0 ROOT    
