@<TRIPOS>MOLECULE
3R136
137   139    1
SMALL
USER_CHARGES


@<TRIPOS>ATOM
      1 CA         28.4322   17.6214    1.3998 C.3       0 UNK        -0.1979 
      2 C          28.3364   18.5833    0.2243 C.2       0 UNK         0.4864 
      3 O          28.0490   18.1546   -0.8949 O.2       0 UNK        -0.5359 
      4 N          28.5840   19.8767    0.4677 N.am      1 UNK        -0.4318 
      5 CA         28.4929   20.9497   -0.5277 C.3       1 UNK         0.0824 
      6 C6         29.1534   22.2576   -0.0225 C.3       12 UNK        -0.0944 
      7 S7         30.9611   22.0847    0.1295 S.3       12 UNK        -0.2672 
      8 C8         31.4904   23.8349    0.1502 C.3       12 UNK         0.0333 
      9 C9         31.6387   24.4747    1.5337 C.ar      12 UNK        -0.0807 
     10 C10        32.3424   25.6798    1.6247 C.ar      12 UNK        -0.0894 
     11 C11        32.5393   26.3106    2.8568 C.ar      12 UNK        -0.0804 
     12 C12        32.0384   25.7141    4.0166 C.ar      12 UNK        -0.0824 
     13 C13        31.3254   24.5125    3.9488 C.ar      12 UNK        -0.0762 
     14 C14        31.1195   23.9052    2.7055 C.ar      12 UNK        -0.0782 
     15 C15        30.8267   23.8369    5.2216 C.3       12 UNK         0.0230 
     16 S16        29.7983   24.9274    6.2568 S.3       12 UNK        -0.2608 
     17 C17        28.2727   25.0796    5.2654 C.3       12 UNK        -0.0989 
     18 CA         28.1937   26.3822    4.4298 C.3       5 UNK         0.0716 
     19 N          27.0286   26.3549    3.5470 N.am      5 UNK        -0.4135 
     20 C          26.8884   27.0985    2.4446 C.2       4 UNK         0.5031 
     21 O          27.7558   27.8511    1.9954 O.2       4 UNK        -0.5229 
     22 CA         25.5338   26.9994    1.7246 C.3       4 UNK         0.0329 
     23 CB         24.7168   28.2838    1.9393 C.3       4 UNK        -0.2001 
     24 N          25.7044   26.7666    0.2895 N.am      4 UNK        -0.4303 
     25 C          26.2307   25.6537   -0.2369 C.2       3 UNK         0.5044 
     26 O          26.6053   24.6865    0.4310 O.2       3 UNK        -0.5152 
     27 CA         26.3917   25.6360   -1.7663 C.3       3 UNK         0.0319 
     28 CB         27.7167   26.3041   -2.1697 C.3       3 UNK        -0.2001 
     29 N          26.3796   24.2667   -2.2795 N.am      3 UNK        -0.4354 
     30 C          25.2919   23.4881   -2.3748 C.2       2 UNK         0.4964 
     31 O          24.1423   23.8845   -2.1793 O.2       2 UNK        -0.5047 
     32 CA         25.5333   22.0115   -2.7387 C.3       2 UNK         0.0288 
     33 CB         25.4939   21.8144   -4.2632 C.3       2 UNK        -0.2113 
     34 N          26.8119   21.5206   -2.2143 N.am      2 UNK        -0.4145 
     35 C          27.0277   21.2167   -0.9259 C.2       1 UNK         0.5006 
     36 O          26.1414   21.1863   -0.0674 O.2       1 UNK        -0.5103 
     37 C          28.1467   27.6486    5.3108 C.2       5 UNK         0.5055 
     38 O          27.0679   28.0476    5.7581 O.2       5 UNK        -0.5220 
     39 N          29.3226   28.2296    5.5577 N.am      6 UNK        -0.4450 
     40 CA         29.5914   29.4083    6.3753 C.3       6 UNK         0.0367 
     41 CB         28.9631   30.6750    5.7494 C.3       6 UNK        -0.1929 
     42 C          31.1210   29.5127    6.5053 C.2       6 UNK         0.5070 
     43 O          31.8211   28.5297    6.2442 O.2       6 UNK        -0.5237 
     44 N          31.6243   30.6983    6.8714 N.am      7 UNK        -0.4739 
     45 CA         33.0479   31.0447    6.8047 C.3       7 UNK         0.0276 
     46 CB         33.2586   32.4100    7.4791 C.3       7 UNK        -0.1927 
     47 C          33.5430   31.0920    5.3479 C.2       7 UNK         0.5013 
     48 O          32.7473   31.3703    4.4489 O.2       7 UNK        -0.5193 
     49 N          34.8489   30.8755    5.1403 N.am      8 UNK        -0.4253 
     50 CA         35.5013   30.7763    3.8245 C.3       8 UNK         0.0242 
     51 CB         37.0048   30.5262    4.0252 C.3       8 UNK        -0.2000 
     52 C          35.2804   31.9680    2.8707 C.2       8 UNK         0.4948 
     53 O          35.3065   31.7770    1.6547 O.2       8 UNK        -0.5275 
     54 N          35.0619   33.1649    3.4298 N.am      9 UNK        -0.4246 
     55 CA         34.7505   34.3860    2.6841 C.3       9 UNK         0.0261 
     56 CB         35.2787   35.5922    3.4798 C.3       9 UNK        -0.1959 
     57 C          33.2475   34.5621    2.3864 C.2       9 UNK         0.5033 
     58 O          32.9087   35.4370    1.5876 O.2       9 UNK        -0.5390 
     59 N          32.3761   33.7830    3.0426 N.am      10 UNK        -0.4215 
     60 CA         30.9192   33.9402    3.0076 C.3       10 UNK         0.0240 
     61 CB         30.4131   34.1276    4.4487 C.3       10 UNK        -0.1982 
     62 C          30.1949   32.7548    2.3504 C.2       10 UNK         0.4970 
     63 O          29.1045   32.9578    1.8146 O.2       10 UNK        -0.4916 
     64 N          30.7707   31.5485    2.4322 N.am      11 UNK        -0.4279 
     65 CA         30.1797   30.2972    1.9373 C.3       11 UNK         0.1003 
     66 C          29.9348   30.2469    0.4020 C.2       11 UNK         0.5709 
     67 N          29.0334   29.3818   -0.0411 N.am      11 UNK        -0.7358 
     68 O          30.5598   30.9560   -0.3856 O.2       11 UNK        -0.4999 
     69 C69        30.9566   29.0610    2.4578 C.3       12 UNK        -0.0954 
     70 S70        32.6634   28.9129    1.8364 S.3       12 UNK        -0.2268 
     71 C71        33.3168   27.6202    2.9431 C.3       12 UNK         0.0203 
     72 H72        28.7316   18.1273    2.3176 H         1 UNK         0.0888 
     73 H73        27.4679   17.1454    1.5739 H         1 UNK         0.0888 
     74 H74        29.1644   16.8425    1.1890 H         1 UNK         0.0888 
     75 H75        28.8040   20.1729    1.4073 H         1 UNK         0.3017 
     76 H76        29.0274   20.6160   -1.4204 H         1 UNK         0.0873 
     77 H77        28.9507   23.0773   -0.7149 H         1 UNK         0.0745 
     78 H78        28.7359   22.5646    0.9388 H         1 UNK         0.0745 
     79 H79        30.8096   24.4393   -0.4505 H         1 UNK         0.0705 
     80 H80        32.4568   23.8803   -0.3543 H         1 UNK         0.0705 
     81 H81        32.7446   26.1331    0.7287 H         1 UNK         0.1334 
     82 H82        32.2086   26.1802    4.9779 H         1 UNK         0.1417 
     83 H83        30.5741   22.9738    2.6634 H         1 UNK         0.1562 
     84 H84        31.6923   23.5221    5.8057 H         1 UNK         0.0748 
     85 H85        30.2670   22.9282    4.9947 H         1 UNK         0.0748 
     86 H86        27.4198   25.0090    5.9434 H         1 UNK         0.0940 
     87 H87        28.1989   24.2129    4.6062 H         1 UNK         0.0940 
     88 H88        29.0834   26.4341    3.7975 H         1 UNK         0.0703 
     89 H89        26.2468   25.7995    3.8607 H         1 UNK         0.3081 
     90 H90        24.9693   26.1593    2.1353 H         1 UNK         0.0719 
     91 H91        25.2228   29.1577    1.5261 H         1 UNK         0.0809 
     92 H92        23.7331   28.2128    1.4749 H         1 UNK         0.0809 
     93 H93        24.5599   28.4723    3.0024 H         1 UNK         0.0809 
     94 H94        25.4593   27.5297   -0.3243 H         1 UNK         0.2990 
     95 H95        25.5635   26.1864   -2.2181 H         1 UNK         0.0690 
     96 H96        28.5757   25.8036   -1.7202 H         1 UNK         0.0788 
     97 H97        27.7426   27.3452   -1.8467 H         1 UNK         0.0788 
     98 H98        27.8518   26.2995   -3.2514 H         1 UNK         0.0788 
     99 H99        27.2804   23.8453   -2.4425 H         1 UNK         0.2993 
    100 H100       24.7247   21.4246   -2.2965 H         1 UNK         0.0949 
    101 H101       26.2827   22.3751   -4.7665 H         1 UNK         0.0767 
    102 H102       25.6057   20.7631   -4.5297 H         1 UNK         0.0767 
    103 H103       24.5412   22.1517   -4.6742 H         1 UNK         0.0767 
    104 H104       27.5855   21.4867   -2.8632 H         1 UNK         0.3013 
    105 H105       30.1745   27.7815    5.2380 H         1 UNK         0.3121 
    106 H106       29.1751   29.2431    7.3706 H         1 UNK         0.0774 
    107 H107       29.0694   31.5391    6.4053 H         1 UNK         0.0815 
    108 H108       29.4320   30.9242    4.7988 H         1 UNK         0.0815 
    109 H109       27.8954   30.5558    5.5688 H         1 UNK         0.0815 
    110 H110       30.9850   31.4579    7.0509 H         1 UNK         0.2987 
    111 H111       33.6144   30.2830    7.3451 H         1 UNK         0.0949 
    112 H112       32.7156   33.2040    6.9639 H         1 UNK         0.0806 
    113 H113       32.9256   32.3952    8.5170 H         1 UNK         0.0806 
    114 H114       34.3134   32.6880    7.4852 H         1 UNK         0.0806 
    115 H115       35.4356   30.6864    5.9406 H         1 UNK         0.3010 
    116 H116       35.0808   29.9007    3.3290 H         1 UNK         0.0829 
    117 H117       37.1848   29.6086    4.5857 H         1 UNK         0.0813 
    118 H118       37.5151   30.4209    3.0665 H         1 UNK         0.0813 
    119 H119       37.4828   31.3480    4.5598 H         1 UNK         0.0813 
    120 H120       35.0719   33.2324    4.4371 H         1 UNK         0.3038 
    121 H121       35.2704   34.3630    1.7238 H         1 UNK         0.0769 
    122 H122       35.1038   36.5241    2.9401 H         1 UNK         0.0811 
    123 H123       36.3530   35.5166    3.6492 H         1 UNK         0.0811 
    124 H124       34.7898   35.6821    4.4507 H         1 UNK         0.0811 
    125 H125       32.7277   33.0275    3.6259 H         1 UNK         0.3204 
    126 H126       30.6464   34.8323    2.4401 H         1 UNK         0.0748 
    127 H127       29.3281   34.2393    4.4735 H         1 UNK         0.0771 
    128 H128       30.6694   33.2758    5.0797 H         1 UNK         0.0771 
    129 H129       30.8409   35.0209    4.9041 H         1 UNK         0.0771 
    130 H130       31.6437   31.4479    2.9408 H         1 UNK         0.2980 
    131 H131       29.1885   30.2510    2.3931 H         1 UNK         0.0545 
    132 H132       28.8543   29.3163   -1.0290 H         1 UNK         0.3459 
    133 H133       28.5339   28.7878    0.6187 H         1 UNK         0.3459 
    134 H134       31.0018   29.0970    3.5450 H         1 UNK         0.0616 
    135 H135       30.4200   28.1438    2.2112 H         1 UNK         0.0616 
    136 H136       33.3182   28.0069    3.9634 H         1 UNK         0.0634 
    137 H137       34.3586   27.4297    2.6833 H         1 UNK         0.0634 
@<TRIPOS>BOND
     1    1    2 1    
     2    1   72 1    
     3    1   73 1    
     4    1   74 1    
     5    2    3 2    
     6    2    4 am   BACKBONE|DICT|INTERRES
     7    4    5 1    
     8    4   75 1    
     9    5    6 1    
    10    5   35 1    
    11    5   76 1    
    12    6    7 1    
    13    6   77 1    
    14    6   78 1    
    15    7    8 1    
    16    8    9 1    
    17    8   79 1    
    18    8   80 1    
    19    9   10 ar   
    20    9   14 ar   
    21   10   11 ar   
    22   10   81 1    
    23   11   12 ar   
    24   11   71 1    
    25   12   13 ar   
    26   12   82 1    
    27   13   14 ar   
    28   13   15 1    
    29   14   83 1    
    30   15   16 1    
    31   15   84 1    
    32   15   85 1    
    33   16   17 1    
    34   17   18 1    
    35   17   86 1    
    36   17   87 1    
    37   18   19 1    
    38   18   37 1    
    39   18   88 1    
    40   19   20 am   BACKBONE|DICT|INTERRES
    41   19   89 1    
    42   20   21 2    
    43   20   22 1    
    44   22   23 1    
    45   22   24 1    
    46   22   90 1    
    47   23   91 1    
    48   23   92 1    
    49   23   93 1    
    50   24   25 am   BACKBONE|DICT|INTERRES
    51   24   94 1    
    52   25   26 2    
    53   25   27 1    
    54   27   28 1    
    55   27   29 1    
    56   27   95 1    
    57   28   96 1    
    58   28   97 1    
    59   28   98 1    
    60   29   30 am   BACKBONE|DICT|INTERRES
    61   29   99 1    
    62   30   31 2    
    63   30   32 1    
    64   32   33 1    
    65   32   34 1    
    66   32  100 1    
    67   33  101 1    
    68   33  102 1    
    69   33  103 1    
    70   34   35 am   BACKBONE|DICT|INTERRES
    71   34  104 1    
    72   35   36 2    
    73   37   38 2    
    74   37   39 am   BACKBONE|DICT|INTERRES
    75   39   40 1    
    76   39  105 1    
    77   40   41 1    
    78   40   42 1    
    79   40  106 1    
    80   41  107 1    
    81   41  108 1    
    82   41  109 1    
    83   42   43 2    
    84   42   44 am   BACKBONE|DICT|INTERRES
    85   44   45 1    
    86   44  110 1    
    87   45   46 1    
    88   45   47 1    
    89   45  111 1    
    90   46  112 1    
    91   46  113 1    
    92   46  114 1    
    93   47   48 2    
    94   47   49 am   BACKBONE|DICT|INTERRES
    95   49   50 1    
    96   49  115 1    
    97   50   51 1    
    98   50   52 1    
    99   50  116 1    
   100   51  117 1    
   101   51  118 1    
   102   51  119 1    
   103   52   53 2    
   104   52   54 am   BACKBONE|DICT|INTERRES
   105   54   55 1    
   106   54  120 1    
   107   55   56 1    
   108   55   57 1    
   109   55  121 1    
   110   56  122 1    
   111   56  123 1    
   112   56  124 1    
   113   57   58 2    
   114   57   59 am   BACKBONE|DICT|INTERRES
   115   59   60 1    
   116   59  125 1    
   117   60   61 1    
   118   60   62 1    
   119   60  126 1    
   120   61  127 1    
   121   61  128 1    
   122   61  129 1    
   123   62   63 2    
   124   62   64 am   BACKBONE|DICT|INTERRES
   125   64   65 1    
   126   64  130 1    
   127   65   66 1    
   128   65   69 1    
   129   65  131 1    
   130   66   67 am   BACKBONE|DICT|INTERRES
   131   66   68 2    
   132   67  132 1    
   133   67  133 1    
   134   69   70 1    
   135   69  134 1    
   136   69  135 1    
   137   70   71 1    
   138   71  136 1    
   139   71  137 1    
@<TRIPOS>SUBSTRUCTURE
     1 UNK         1 GROUP             0       ****    0 ROOT    
