@<TRIPOS>MOLECULE
3R136
137   139    1
SMALL
USER_CHARGES


@<TRIPOS>ATOM
      1 CA         26.1556   22.7017    3.0735 C.3       0 UNK        -0.1979 
      2 C          26.7997   21.7346    2.0925 C.2       0 UNK         0.4864 
      3 O          26.8221   20.5295    2.3479 O.2       0 UNK        -0.5359 
      4 N          27.3126   22.2555    0.9748 N.am      1 UNK        -0.4318 
      5 CA         27.8837   21.4904   -0.1325 C.3       1 UNK         0.0824 
      6 C6         29.4393   21.4708   -0.0897 C.3       12 UNK        -0.0944 
      7 S7         30.2427   23.1121   -0.2155 S.3       12 UNK        -0.2672 
      8 C8         31.8339   22.8069    0.6102 C.3       12 UNK         0.0333 
      9 C9         31.8914   23.4669    1.9796 C.ar      12 UNK        -0.0807 
     10 C10        32.5996   24.6611    2.1501 C.ar      12 UNK        -0.0894 
     11 C11        32.6893   25.2560    3.4111 C.ar      12 UNK        -0.0804 
     12 C12        32.0700   24.6485    4.5043 C.ar      12 UNK        -0.0824 
     13 C13        31.3354   23.4702    4.3446 C.ar      12 UNK        -0.0762 
     14 C14        31.2550   22.8794    3.0787 C.ar      12 UNK        -0.0782 
     15 C15        30.6440   22.8267    5.5412 C.3       12 UNK         0.0230 
     16 S16        29.6746   24.0180    6.5283 S.3       12 UNK        -0.2608 
     17 C17        28.3987   24.5422    5.3333 C.3       12 UNK        -0.0989 
     18 CA         28.5450   26.0083    4.8477 C.3       5 UNK         0.0716 
     19 N          27.5638   26.2918    3.8031 N.am      5 UNK        -0.4135 
     20 C          27.7113   27.2059    2.8395 C.2       4 UNK         0.5031 
     21 O          28.7091   27.9140    2.7047 O.2       4 UNK        -0.5229 
     22 CA         26.5287   27.3673    1.8699 C.3       4 UNK         0.0329 
     23 CB         25.7929   28.6952    2.1078 C.3       4 UNK        -0.2001 
     24 N          26.9822   27.3092    0.4813 N.am      4 UNK        -0.4303 
     25 C          27.3739   26.1873   -0.1331 C.2       3 UNK         0.5044 
     26 O          27.3204   25.0677    0.3873 O.2       3 UNK        -0.5152 
     27 CA         27.9133   26.3546   -1.5627 C.3       3 UNK         0.0319 
     28 CB         29.2813   27.0536   -1.5466 C.3       3 UNK        -0.2001 
     29 N          28.0775   25.0394   -2.1716 N.am      3 UNK        -0.4354 
     30 C          27.4757   24.5900   -3.2802 C.2       2 UNK         0.4964 
     31 O          26.7746   25.2868   -4.0147 O.2       2 UNK        -0.5047 
     32 CA         27.6833   23.0998   -3.6259 C.3       2 UNK         0.0288 
     33 CB         28.7552   22.9426   -4.7168 C.3       2 UNK        -0.2113 
     34 N          28.0690   22.3033   -2.4561 N.am      2 UNK        -0.4145 
     35 C          27.2486   22.0200   -1.4346 C.2       1 UNK         0.5006 
     36 O          26.0284   22.1986   -1.4826 O.2       1 UNK        -0.5103 
     37 C          28.3443   27.0297    5.9832 C.2       5 UNK         0.5055 
     38 O          27.3030   26.9874    6.6438 O.2       5 UNK        -0.5220 
     39 N          29.3221   27.9210    6.1890 N.am      6 UNK        -0.4450 
     40 CA         29.3316   28.8993    7.2778 C.3       6 UNK         0.0367 
     41 CB         28.2954   30.0211    7.0476 C.3       6 UNK        -0.1929 
     42 C          30.7424   29.4647    7.4675 C.2       6 UNK         0.5070 
     43 O          31.3655   29.2203    8.5006 O.2       6 UNK        -0.5237 
     44 N          31.2189   30.2071    6.4644 N.am      7 UNK        -0.4739 
     45 CA         32.5069   30.8963    6.4281 C.3       7 UNK         0.0276 
     46 CB         32.4444   32.1770    7.2830 C.3       7 UNK        -0.1927 
     47 C          32.8207   31.2301    4.9660 C.2       7 UNK         0.5013 
     48 O          31.9198   31.1510    4.1274 O.2       7 UNK        -0.5193 
     49 N          34.0716   31.6206    4.6836 N.am      8 UNK        -0.4253 
     50 CA         34.6247   31.8580    3.3401 C.3       8 UNK         0.0242 
     51 CB         36.0485   32.4227    3.4688 C.3       8 UNK        -0.2000 
     52 C          33.7801   32.7507    2.4099 C.2       8 UNK         0.4948 
     53 O          33.7242   32.4837    1.2093 O.2       8 UNK        -0.5275 
     54 N          33.1075   33.7607    2.9794 N.am      9 UNK        -0.4246 
     55 CA         32.1766   34.6472    2.2740 C.3       9 UNK         0.0261 
     56 CB         31.8010   35.8189    3.1958 C.3       9 UNK        -0.1959 
     57 C          30.9060   33.9409    1.7585 C.2       9 UNK         0.5033 
     58 O          30.3255   34.4031    0.7751 O.2       9 UNK        -0.5390 
     59 N          30.4971   32.8509    2.4207 N.am      10 UNK        -0.4215 
     60 CA         29.3789   31.9959    2.0245 C.3       10 UNK         0.0240 
     61 CB         28.6606   31.4858    3.2849 C.3       10 UNK        -0.1982 
     62 C          29.8676   30.8193    1.1649 C.2       10 UNK         0.4970 
     63 O          29.2016   30.4795    0.1859 O.2       10 UNK        -0.4916 
     64 N          31.0154   30.2331    1.5372 N.am      11 UNK        -0.4279 
     65 CA         31.6544   29.1139    0.8280 C.3       11 UNK         0.1003 
     66 C          32.1584   29.4779   -0.5972 C.2       11 UNK         0.5709 
     67 N          32.6220   30.6987   -0.8382 N.am      11 UNK        -0.7358 
     68 O          32.1378   28.6390   -1.4936 O.2       11 UNK        -0.4999 
     69 C69        32.8103   28.4773    1.6425 C.3       12 UNK        -0.0954 
     70 S70        32.3462   27.9813    3.3354 S.3       12 UNK        -0.2268 
     71 C71        33.4434   26.5591    3.6064 C.3       12 UNK         0.0203 
     72 H72        26.4021   23.7357    2.8353 H         1 UNK         0.0888 
     73 H73        25.0717   22.5944    3.0449 H         1 UNK         0.0888 
     74 H74        26.4906   22.4899    4.0882 H         1 UNK         0.0888 
     75 H75        27.2532   23.2598    0.8065 H         1 UNK         0.3017 
     76 H76        27.5459   20.4541   -0.0655 H         1 UNK         0.0873 
     77 H77        29.7495   21.0059    0.8472 H         1 UNK         0.0745 
     78 H78        29.8366   20.8244   -0.8743 H         1 UNK         0.0745 
     79 H79        32.6306   23.1929   -0.0275 H         1 UNK         0.0705 
     80 H80        32.0210   21.7362    0.7037 H         1 UNK         0.0705 
     81 H81        33.0824   25.1275    1.3024 H         1 UNK         0.1334 
     82 H82        32.1428   25.1069    5.4811 H         1 UNK         0.1417 
     83 H83        30.6997   21.9611    2.9450 H         1 UNK         0.1562 
     84 H84        31.4029   22.3759    6.1819 H         1 UNK         0.0748 
     85 H85        29.9869   22.0156    5.2232 H         1 UNK         0.0748 
     86 H86        27.4192   24.3779    5.7869 H         1 UNK         0.0940 
     87 H87        28.4437   23.8754    4.4715 H         1 UNK         0.0940 
     88 H88        29.5469   26.1286    4.4287 H         1 UNK         0.0703 
     89 H89        26.6807   25.8117    3.8858 H         1 UNK         0.3081 
     90 H90        25.8190   26.5534    2.0354 H         1 UNK         0.0719 
     91 H91        26.4082   29.5496    1.8276 H         1 UNK         0.0809 
     92 H92        24.8725   28.7450    1.5258 H         1 UNK         0.0809 
     93 H93        25.5202   28.8138    3.1575 H         1 UNK         0.0809 
     94 H94        27.1139   28.1944    0.0133 H         1 UNK         0.2990 
     95 H95        27.2022   26.9577   -2.1310 H         1 UNK         0.0690 
     96 H96        30.0033   26.5149   -0.9306 H         1 UNK         0.0788 
     97 H97        29.2031   28.0659   -1.1494 H         1 UNK         0.0788 
     98 H98        29.6973   27.1362   -2.5508 H         1 UNK         0.0788 
     99 H99        28.5838   24.3761   -1.5996 H         1 UNK         0.2993 
    100 H100       26.7364   22.7156   -4.0119 H         1 UNK         0.0949 
    101 H101       29.7273   23.3094   -4.3842 H         1 UNK         0.0767 
    102 H102       28.8715   21.8994   -5.0115 H         1 UNK         0.0767 
    103 H103       28.4843   23.5030   -5.6128 H         1 UNK         0.0767 
    104 H104       29.0575   22.1328   -2.3310 H         1 UNK         0.3013 
    105 H105       30.1485   27.8941    5.6051 H         1 UNK         0.3121 
    106 H106       29.0697   28.3808    8.2030 H         1 UNK         0.0774 
    107 H107       28.3856   30.7978    7.8082 H         1 UNK         0.0815 
    108 H108       28.4174   30.4990    6.0767 H         1 UNK         0.0815 
    109 H109       27.2755   29.6410    7.1019 H         1 UNK         0.0815 
    110 H110       30.6808   30.3199    5.6137 H         1 UNK         0.2987 
    111 H111       33.2832   30.2276    6.8061 H         1 UNK         0.0949 
    112 H112       31.6741   32.8614    6.9249 H         1 UNK         0.0806 
    113 H113       32.2275   31.9493    8.3267 H         1 UNK         0.0806 
    114 H114       33.3936   32.7137    7.2654 H         1 UNK         0.0806 
    115 H115       34.7317   31.6784    5.4459 H         1 UNK         0.3010 
    116 H116       34.6973   30.8822    2.8584 H         1 UNK         0.0829 
    117 H117       36.7033   31.7345    4.0036 H         1 UNK         0.0813 
    118 H118       36.4935   32.5898    2.4866 H         1 UNK         0.0813 
    119 H119       36.0584   33.3768    3.9974 H         1 UNK         0.0813 
    120 H120       33.2108   33.9020    3.9738 H         1 UNK         0.3038 
    121 H121       32.6983   35.0510    1.4036 H         1 UNK         0.0769 
    122 H122       31.1299   36.5140    2.6890 H         1 UNK         0.0811 
    123 H123       32.6819   36.3854    3.4983 H         1 UNK         0.0811 
    124 H124       31.2934   35.4763    4.0985 H         1 UNK         0.0811 
    125 H125       31.0730   32.4955    3.1800 H         1 UNK         0.3204 
    126 H126       28.6628   32.5751    1.4376 H         1 UNK         0.0748 
    127 H127       27.7512   30.9476    3.0231 H         1 UNK         0.0771 
    128 H128       29.2849   30.7980    3.8553 H         1 UNK         0.0771 
    129 H129       28.3731   32.3069    3.9417 H         1 UNK         0.0771 
    130 H130       31.4647   30.5318    2.3967 H         1 UNK         0.2980 
    131 H131       30.8871   28.3472    0.7067 H         1 UNK         0.0545 
    132 H132       32.7478   31.3657   -0.0834 H         1 UNK         0.3459 
    133 H133       32.9458   30.9258   -1.7641 H         1 UNK         0.3459 
    134 H134       33.1840   27.5987    1.1142 H         1 UNK         0.0616 
    135 H135       33.6508   29.1678    1.7157 H         1 UNK         0.0616 
    136 H136       34.3105   26.6070    2.9461 H         1 UNK         0.0634 
    137 H137       33.8365   26.6138    4.6227 H         1 UNK         0.0634 
@<TRIPOS>BOND
     1    1    2 1    
     2    1   72 1    
     3    1   73 1    
     4    1   74 1    
     5    2    3 2    
     6    2    4 am   BACKBONE|DICT|INTERRES
     7    4    5 1    
     8    4   75 1    
     9    5    6 1    
    10    5   35 1    
    11    5   76 1    
    12    6    7 1    
    13    6   77 1    
    14    6   78 1    
    15    7    8 1    
    16    8    9 1    
    17    8   79 1    
    18    8   80 1    
    19    9   10 ar   
    20    9   14 ar   
    21   10   11 ar   
    22   10   81 1    
    23   11   12 ar   
    24   11   71 1    
    25   12   13 ar   
    26   12   82 1    
    27   13   14 ar   
    28   13   15 1    
    29   14   83 1    
    30   15   16 1    
    31   15   84 1    
    32   15   85 1    
    33   16   17 1    
    34   17   18 1    
    35   17   86 1    
    36   17   87 1    
    37   18   19 1    
    38   18   37 1    
    39   18   88 1    
    40   19   20 am   BACKBONE|DICT|INTERRES
    41   19   89 1    
    42   20   21 2    
    43   20   22 1    
    44   22   23 1    
    45   22   24 1    
    46   22   90 1    
    47   23   91 1    
    48   23   92 1    
    49   23   93 1    
    50   24   25 am   BACKBONE|DICT|INTERRES
    51   24   94 1    
    52   25   26 2    
    53   25   27 1    
    54   27   28 1    
    55   27   29 1    
    56   27   95 1    
    57   28   96 1    
    58   28   97 1    
    59   28   98 1    
    60   29   30 am   BACKBONE|DICT|INTERRES
    61   29   99 1    
    62   30   31 2    
    63   30   32 1    
    64   32   33 1    
    65   32   34 1    
    66   32  100 1    
    67   33  101 1    
    68   33  102 1    
    69   33  103 1    
    70   34   35 am   BACKBONE|DICT|INTERRES
    71   34  104 1    
    72   35   36 2    
    73   37   38 2    
    74   37   39 am   BACKBONE|DICT|INTERRES
    75   39   40 1    
    76   39  105 1    
    77   40   41 1    
    78   40   42 1    
    79   40  106 1    
    80   41  107 1    
    81   41  108 1    
    82   41  109 1    
    83   42   43 2    
    84   42   44 am   BACKBONE|DICT|INTERRES
    85   44   45 1    
    86   44  110 1    
    87   45   46 1    
    88   45   47 1    
    89   45  111 1    
    90   46  112 1    
    91   46  113 1    
    92   46  114 1    
    93   47   48 2    
    94   47   49 am   BACKBONE|DICT|INTERRES
    95   49   50 1    
    96   49  115 1    
    97   50   51 1    
    98   50   52 1    
    99   50  116 1    
   100   51  117 1    
   101   51  118 1    
   102   51  119 1    
   103   52   53 2    
   104   52   54 am   BACKBONE|DICT|INTERRES
   105   54   55 1    
   106   54  120 1    
   107   55   56 1    
   108   55   57 1    
   109   55  121 1    
   110   56  122 1    
   111   56  123 1    
   112   56  124 1    
   113   57   58 2    
   114   57   59 am   BACKBONE|DICT|INTERRES
   115   59   60 1    
   116   59  125 1    
   117   60   61 1    
   118   60   62 1    
   119   60  126 1    
   120   61  127 1    
   121   61  128 1    
   122   61  129 1    
   123   62   63 2    
   124   62   64 am   BACKBONE|DICT|INTERRES
   125   64   65 1    
   126   64  130 1    
   127   65   66 1    
   128   65   69 1    
   129   65  131 1    
   130   66   67 am   BACKBONE|DICT|INTERRES
   131   66   68 2    
   132   67  132 1    
   133   67  133 1    
   134   69   70 1    
   135   69  134 1    
   136   69  135 1    
   137   70   71 1    
   138   71  136 1    
   139   71  137 1    
@<TRIPOS>SUBSTRUCTURE
     1 UNK         1 GROUP             0       ****    0 ROOT    
