@<TRIPOS>MOLECULE
3R136
137   139    1
SMALL
USER_CHARGES


@<TRIPOS>ATOM
      1 CA         27.5322   23.4830    1.0782 C.3       0 UNK        -0.1979 
      2 C          28.6730   23.7923    0.1215 C.2       0 UNK         0.4864 
      3 O          29.0681   24.9527    0.0090 O.2       0 UNK        -0.5359 
      4 N          29.1932   22.7504   -0.5483 N.am      1 UNK        -0.4318 
      5 CA         30.3423   22.7225   -1.4684 C.3       1 UNK         0.0824 
      6 C6         31.7053   22.4405   -0.7652 C.3       12 UNK        -0.0944 
      7 S7         32.1545   23.5882    0.5848 S.3       12 UNK        -0.2672 
      8 C8         31.7153   22.6041    2.0572 C.3       12 UNK         0.0333 
      9 C9         31.2179   23.4555    3.2213 C.ar      12 UNK        -0.0807 
     10 C10        31.8833   24.6274    3.5967 C.ar      12 UNK        -0.0894 
     11 C11        31.4253   25.3931    4.6719 C.ar      12 UNK        -0.0804 
     12 C12        30.3041   24.9731    5.3927 C.ar      12 UNK        -0.0824 
     13 C13        29.6301   23.8037    5.0302 C.ar      12 UNK        -0.0762 
     14 C14        30.0905   23.0516    3.9447 C.ar      12 UNK        -0.0782 
     15 C15        28.4116   23.3389    5.8131 C.3       12 UNK         0.0230 
     16 S16        26.8629   23.9193    5.0526 S.3       12 UNK        -0.2608 
     17 C17        26.6957   25.6049    5.7380 C.3       12 UNK        -0.0989 
     18 CA         27.0936   26.7235    4.7425 C.3       5 UNK         0.0716 
     19 N          26.4253   26.5776    3.4398 N.am      5 UNK        -0.4135 
     20 C          26.6529   27.3587    2.3776 C.2       4 UNK         0.5031 
     21 O          27.3712   28.3611    2.4073 O.2       4 UNK        -0.5229 
     22 CA         25.9346   27.0020    1.0744 C.3       4 UNK         0.0329 
     23 CB         24.5161   27.5957    1.0419 C.3       4 UNK        -0.2001 
     24 N          26.7340   27.5735    0.0011 N.am      4 UNK        -0.4303 
     25 C          26.9230   27.0704   -1.2196 C.2       3 UNK         0.5044 
     26 O          26.3307   26.0845   -1.6609 O.2       3 UNK        -0.5152 
     27 CA         27.9638   27.7832   -2.0929 C.3       3 UNK         0.0319 
     28 CB         28.2987   29.2237   -1.6338 C.3       3 UNK        -0.2001 
     29 N          29.1754   26.9671   -2.1313 N.am      3 UNK        -0.4354 
     30 C          30.1073   27.0397   -3.0910 C.2       2 UNK         0.4964 
     31 O          30.0304   27.8010   -4.0568 O.2       2 UNK        -0.5047 
     32 CA         31.3486   26.1368   -2.9690 C.3       2 UNK         0.0288 
     33 CB         32.5326   26.9299   -2.3906 C.3       2 UNK        -0.2113 
     34 N          31.1484   24.9376   -2.1575 N.am      2 UNK        -0.4145 
     35 C          30.3766   23.8921   -2.4784 C.2       1 UNK         0.5006 
     36 O          29.7226   23.8143   -3.5206 O.2       1 UNK        -0.5103 
     37 C          26.8831   28.1118    5.3908 C.2       5 UNK         0.5055 
     38 O          27.7867   28.6155    6.0589 O.2       5 UNK        -0.5220 
     39 N          25.7042   28.7088    5.1627 N.am      6 UNK        -0.4450 
     40 CA         25.3399   30.0553    5.6108 C.3       6 UNK         0.0367 
     41 CB         23.8093   30.1326    5.7415 C.3       6 UNK        -0.1929 
     42 C          25.8543   31.1747    4.6830 C.2       6 UNK         0.5070 
     43 O          25.7774   32.3424    5.0648 O.2       6 UNK        -0.5237 
     44 N          26.3612   30.8239    3.4932 N.am      7 UNK        -0.4739 
     45 CA         26.8636   31.7452    2.4703 C.3       7 UNK         0.0276 
     46 CB         26.2021   31.4028    1.1219 C.3       7 UNK        -0.1927 
     47 C          28.4005   31.6952    2.3994 C.2       7 UNK         0.5013 
     48 O          28.9721   31.7597    1.3090 O.2       7 UNK        -0.5193 
     49 N          29.0415   31.5664    3.5696 N.am      8 UNK        -0.4253 
     50 CA         30.4844   31.5179    3.8422 C.3       8 UNK         0.0242 
     51 CB         31.1944   32.8088    3.3894 C.3       8 UNK        -0.2000 
     52 C          31.2110   30.2727    3.3062 C.2       8 UNK         0.4948 
     53 O          32.0123   29.7067    4.0473 O.2       8 UNK        -0.5275 
     54 N          30.9548   29.8948    2.0437 N.am      9 UNK        -0.4246 
     55 CA         31.4536   28.7149    1.3142 C.3       9 UNK         0.0261 
     56 CB         30.5723   27.4899    1.6293 C.3       9 UNK        -0.1959 
     57 C          32.9670   28.4324    1.4580 C.2       9 UNK         0.5033 
     58 O          33.3811   27.2735    1.4983 O.2       9 UNK        -0.5390 
     59 N          33.7622   29.5089    1.5350 N.am      10 UNK        -0.4215 
     60 CA         35.2182   29.5346    1.7146 C.3       10 UNK         0.0240 
     61 CB         35.9354   28.8913    0.5068 C.3       10 UNK        -0.1982 
     62 C          35.7257   28.9844    3.0675 C.2       10 UNK         0.4970 
     63 O          36.9219   28.7059    3.1761 O.2       10 UNK        -0.4916 
     64 N          34.8589   28.8763    4.0870 N.am      11 UNK        -0.4279 
     65 CA         35.2752   28.6198    5.4772 C.3       11 UNK         0.1003 
     66 C          35.9684   29.8629    6.1025 C.2       11 UNK         0.5709 
     67 N          36.8965   29.6542    7.0268 N.am      11 UNK        -0.7358 
     68 O          35.6520   31.0093    5.7870 O.2       11 UNK        -0.4999 
     69 C69        34.0984   28.1443    6.3701 C.3       12 UNK        -0.0954 
     70 S70        33.6027   26.4226    6.0330 S.3       12 UNK        -0.2268 
     71 C71        32.1223   26.6948    5.0228 C.3       12 UNK         0.0203 
     72 H72        27.6149   24.1032    1.9706 H         1 UNK         0.0888 
     73 H73        26.5755   23.6862    0.5989 H         1 UNK         0.0888 
     74 H74        27.5434   22.4407    1.3959 H         1 UNK         0.0888 
     75 H75        28.7604   21.8480   -0.4114 H         1 UNK         0.3017 
     76 H76        30.1566   21.8468   -2.0928 H         1 UNK         0.0873 
     77 H77        31.7014   21.4231   -0.3717 H         1 UNK         0.0745 
     78 H78        32.5155   22.4486   -1.4969 H         1 UNK         0.0745 
     79 H79        32.5876   22.0329    2.3767 H         1 UNK         0.0705 
     80 H80        30.9497   21.8764    1.7845 H         1 UNK         0.0705 
     81 H81        32.7516   24.9577    3.0420 H         1 UNK         0.1334 
     82 H82        29.9497   25.5631    6.2269 H         1 UNK         0.1417 
     83 H83        29.5680   22.1463    3.6670 H         1 UNK         0.1562 
     84 H84        28.4700   23.6636    6.8530 H         1 UNK         0.0748 
     85 H85        28.3943   22.2484    5.8433 H         1 UNK         0.0748 
     86 H86        27.2851   25.6844    6.6535 H         1 UNK         0.0940 
     87 H87        25.6552   25.7258    6.0464 H         1 UNK         0.0940 
     88 H88        28.1636   26.6337    4.5453 H         1 UNK         0.0703 
     89 H89        25.8201   25.7747    3.3455 H         1 UNK         0.3081 
     90 H90        25.8908   25.9173    0.9718 H         1 UNK         0.0719 
     91 H91        24.5272   28.6783    1.1750 H         1 UNK         0.0809 
     92 H92        24.0213   27.3820    0.0943 H         1 UNK         0.0809 
     93 H93        23.8951   27.1740    1.8329 H         1 UNK         0.0809 
     94 H94        27.3178   28.3412    0.3099 H         1 UNK         0.2990 
     95 H95        27.5395   27.8337   -3.0979 H         1 UNK         0.0690 
     96 H96        28.9402   29.7280   -2.3565 H         1 UNK         0.0788 
     97 H97        28.8150   29.2436   -0.6733 H         1 UNK         0.0788 
     98 H98        27.3957   29.8288   -1.5422 H         1 UNK         0.0788 
     99 H99        29.2661   26.2706   -1.3916 H         1 UNK         0.2993 
    100 H100       31.6113   25.8149   -3.9790 H         1 UNK         0.0949 
    101 H101       33.4488   26.3391   -2.4003 H         1 UNK         0.0767 
    102 H102       32.7237   27.8329   -2.9723 H         1 UNK         0.0767 
    103 H103       32.3445   27.2364   -1.3613 H         1 UNK         0.0767 
    104 H104       31.6005   24.9125   -1.2513 H         1 UNK         0.3013 
    105 H105       25.0218   28.2194    4.6021 H         1 UNK         0.3121 
    106 H106       25.7738   30.2282    6.5981 H         1 UNK         0.0774 
    107 H107       23.4974   31.1089    6.1154 H         1 UNK         0.0815 
    108 H108       23.3130   29.9783    4.7825 H         1 UNK         0.0815 
    109 H109       23.4318   29.3862    6.4407 H         1 UNK         0.0815 
    110 H110       26.4991   29.8389    3.2837 H         1 UNK         0.2987 
    111 H111       26.5959   32.7740    2.7201 H         1 UNK         0.0949 
    112 H112       26.4764   30.4050    0.7817 H         1 UNK         0.0806 
    113 H113       25.1153   31.4463    1.1913 H         1 UNK         0.0806 
    114 H114       26.5041   32.1070    0.3455 H         1 UNK         0.0806 
    115 H115       28.4545   31.4692    4.3865 H         1 UNK         0.3010 
    116 H116       30.5663   31.4713    4.9295 H         1 UNK         0.0829 
    117 H117       30.7402   33.6899    3.8425 H         1 UNK         0.0813 
    118 H118       32.2443   32.7982    3.6855 H         1 UNK         0.0813 
    119 H119       31.1652   32.9364    2.3069 H         1 UNK         0.0813 
    120 H120       30.2862   30.4767    1.5415 H         1 UNK         0.3038 
    121 H121       31.3135   28.9386    0.2558 H         1 UNK         0.0769 
    122 H122       30.9650   26.5745    1.1846 H         1 UNK         0.0811 
    123 H123       29.5702   27.6198    1.2258 H         1 UNK         0.0811 
    124 H124       30.4764   27.3208    2.7006 H         1 UNK         0.0811 
    125 H125       33.3117   30.4132    1.5145 H         1 UNK         0.3204 
    126 H126       35.4881   30.5915    1.7199 H         1 UNK         0.0748 
    127 H127       37.0113   29.0656    0.5490 H         1 UNK         0.0771 
    128 H128       35.7841   27.8120    0.4736 H         1 UNK         0.0771 
    129 H129       35.5798   29.3087   -0.4352 H         1 UNK         0.0771 
    130 H130       33.8881   29.1446    3.9543 H         1 UNK         0.2980 
    131 H131       36.0180   27.8195    5.4559 H         1 UNK         0.0545 
    132 H132       37.3488   30.4472    7.4544 H         1 UNK         0.3459 
    133 H133       37.1572   28.7201    7.3027 H         1 UNK         0.3459 
    134 H134       34.3818   28.1722    7.4240 H         1 UNK         0.0616 
    135 H135       33.2422   28.8143    6.2777 H         1 UNK         0.0616 
    136 H136       32.4239   27.1947    4.1044 H         1 UNK         0.0634 
    137 H137       31.4363   27.3679    5.5396 H         1 UNK         0.0634 
@<TRIPOS>BOND
     1    1    2 1    
     2    1   72 1    
     3    1   73 1    
     4    1   74 1    
     5    2    3 2    
     6    2    4 am   BACKBONE|DICT|INTERRES
     7    4    5 1    
     8    4   75 1    
     9    5    6 1    
    10    5   35 1    
    11    5   76 1    
    12    6    7 1    
    13    6   77 1    
    14    6   78 1    
    15    7    8 1    
    16    8    9 1    
    17    8   79 1    
    18    8   80 1    
    19    9   10 ar   
    20    9   14 ar   
    21   10   11 ar   
    22   10   81 1    
    23   11   12 ar   
    24   11   71 1    
    25   12   13 ar   
    26   12   82 1    
    27   13   14 ar   
    28   13   15 1    
    29   14   83 1    
    30   15   16 1    
    31   15   84 1    
    32   15   85 1    
    33   16   17 1    
    34   17   18 1    
    35   17   86 1    
    36   17   87 1    
    37   18   19 1    
    38   18   37 1    
    39   18   88 1    
    40   19   20 am   BACKBONE|DICT|INTERRES
    41   19   89 1    
    42   20   21 2    
    43   20   22 1    
    44   22   23 1    
    45   22   24 1    
    46   22   90 1    
    47   23   91 1    
    48   23   92 1    
    49   23   93 1    
    50   24   25 am   BACKBONE|DICT|INTERRES
    51   24   94 1    
    52   25   26 2    
    53   25   27 1    
    54   27   28 1    
    55   27   29 1    
    56   27   95 1    
    57   28   96 1    
    58   28   97 1    
    59   28   98 1    
    60   29   30 am   BACKBONE|DICT|INTERRES
    61   29   99 1    
    62   30   31 2    
    63   30   32 1    
    64   32   33 1    
    65   32   34 1    
    66   32  100 1    
    67   33  101 1    
    68   33  102 1    
    69   33  103 1    
    70   34   35 am   BACKBONE|DICT|INTERRES
    71   34  104 1    
    72   35   36 2    
    73   37   38 2    
    74   37   39 am   BACKBONE|DICT|INTERRES
    75   39   40 1    
    76   39  105 1    
    77   40   41 1    
    78   40   42 1    
    79   40  106 1    
    80   41  107 1    
    81   41  108 1    
    82   41  109 1    
    83   42   43 2    
    84   42   44 am   BACKBONE|DICT|INTERRES
    85   44   45 1    
    86   44  110 1    
    87   45   46 1    
    88   45   47 1    
    89   45  111 1    
    90   46  112 1    
    91   46  113 1    
    92   46  114 1    
    93   47   48 2    
    94   47   49 am   BACKBONE|DICT|INTERRES
    95   49   50 1    
    96   49  115 1    
    97   50   51 1    
    98   50   52 1    
    99   50  116 1    
   100   51  117 1    
   101   51  118 1    
   102   51  119 1    
   103   52   53 2    
   104   52   54 am   BACKBONE|DICT|INTERRES
   105   54   55 1    
   106   54  120 1    
   107   55   56 1    
   108   55   57 1    
   109   55  121 1    
   110   56  122 1    
   111   56  123 1    
   112   56  124 1    
   113   57   58 2    
   114   57   59 am   BACKBONE|DICT|INTERRES
   115   59   60 1    
   116   59  125 1    
   117   60   61 1    
   118   60   62 1    
   119   60  126 1    
   120   61  127 1    
   121   61  128 1    
   122   61  129 1    
   123   62   63 2    
   124   62   64 am   BACKBONE|DICT|INTERRES
   125   64   65 1    
   126   64  130 1    
   127   65   66 1    
   128   65   69 1    
   129   65  131 1    
   130   66   67 am   BACKBONE|DICT|INTERRES
   131   66   68 2    
   132   67  132 1    
   133   67  133 1    
   134   69   70 1    
   135   69  134 1    
   136   69  135 1    
   137   70   71 1    
   138   71  136 1    
   139   71  137 1    
@<TRIPOS>SUBSTRUCTURE
     1 UNK         1 GROUP             0       ****    0 ROOT    
