@<TRIPOS>MOLECULE
3R136
137   139    1
SMALL
USER_CHARGES


@<TRIPOS>ATOM
      1 CA         29.5180   28.0385   -4.1434 C.3       0 UNK        -0.1979 
      2 C          28.7255   27.5197   -2.9535 C.2       0 UNK         0.4864 
      3 O          27.6250   28.0053   -2.6881 O.2       0 UNK        -0.5359 
      4 N          29.2695   26.5290   -2.2354 N.am      1 UNK        -0.4318 
      5 CA         28.7012   25.9063   -1.0337 C.3       1 UNK         0.0824 
      6 C6         29.7981   25.2706   -0.1326 C.3       12 UNK        -0.0944 
      7 S7         31.0529   24.2850   -1.0208 S.3       12 UNK        -0.2672 
      8 C8         31.5421   23.0763    0.2573 C.3       12 UNK         0.0333 
      9 C9         32.0095   23.6956    1.5754 C.ar      12 UNK        -0.0807 
     10 C10        32.8261   24.8343    1.6102 C.ar      12 UNK        -0.0894 
     11 C11        33.2288   25.3836    2.8326 C.ar      12 UNK        -0.0804 
     12 C12        32.8280   24.7775    4.0253 C.ar      12 UNK        -0.0824 
     13 C13        32.0144   23.6435    4.0068 C.ar      12 UNK        -0.0762 
     14 C14        31.6211   23.1004    2.7803 C.ar      12 UNK        -0.0782 
     15 C15        31.5428   23.0229    5.3146 C.3       12 UNK         0.0230 
     16 S16        29.7370   23.1484    5.5290 S.3       12 UNK        -0.2608 
     17 C17        29.4403   24.9421    5.3458 C.3       12 UNK        -0.0989 
     18 CA         28.9410   25.3579    3.9298 C.3       5 UNK         0.0716 
     19 N          27.6421   24.7751    3.5966 N.am      5 UNK        -0.4135 
     20 C          27.4313   23.6397    2.9224 C.2       4 UNK         0.5031 
     21 O          28.3224   22.9634    2.4109 O.2       4 UNK        -0.5229 
     22 CA         25.9762   23.1487    2.8226 C.3       4 UNK         0.0329 
     23 CB         25.3669   22.8813    4.2146 C.3       4 UNK        -0.2001 
     24 N          25.1030   23.9997    2.0068 N.am      4 UNK        -0.4303 
     25 C          24.7303   25.2701    2.2118 C.2       3 UNK         0.5044 
     26 O          25.1052   25.9525    3.1672 O.2       3 UNK        -0.5152 
     27 CA         23.7928   25.8727    1.1462 C.3       3 UNK         0.0319 
     28 CB         23.3917   27.3276    1.4528 C.3       3 UNK        -0.2001 
     29 N          24.4008   25.8109   -0.1855 N.am      3 UNK        -0.4354 
     30 C          24.3842   24.7423   -0.9962 C.2       2 UNK         0.4964 
     31 O          23.7997   23.6922   -0.7282 O.2       2 UNK        -0.5047 
     32 CA         25.2138   24.8435   -2.2868 C.3       2 UNK         0.0288 
     33 CB         24.4440   25.6043   -3.3783 C.3       2 UNK        -0.2113 
     34 N          26.5033   25.4952   -2.0483 N.am      2 UNK        -0.4145 
     35 C          27.5103   24.9671   -1.3389 C.2       1 UNK         0.5006 
     36 O          27.4997   23.8105   -0.9159 O.2       1 UNK        -0.5103 
     37 C          28.7844   26.8808    3.8011 C.2       5 UNK         0.5055 
     38 O          28.5551   27.5540    4.8073 O.2       5 UNK        -0.5220 
     39 N          28.8446   27.3969    2.5655 N.am      6 UNK        -0.4450 
     40 CA         28.5412   28.7983    2.2563 C.3       6 UNK         0.0367 
     41 CB         27.0105   28.9963    2.2135 C.3       6 UNK        -0.1929 
     42 C          29.2228   29.2916    0.9671 C.2       6 UNK         0.5070 
     43 O          28.6472   30.1243    0.2662 O.2       6 UNK        -0.5237 
     44 N          30.4268   28.7878    0.6536 N.am      7 UNK        -0.4739 
     45 CA         31.1975   29.2387   -0.5181 C.3       7 UNK         0.0276 
     46 CB         32.2672   28.1977   -0.8897 C.3       7 UNK        -0.1927 
     47 C          31.8407   30.6238   -0.3179 C.2       7 UNK         0.5013 
     48 O          32.0873   31.3261   -1.2990 O.2       7 UNK        -0.5193 
     49 N          32.0894   30.9881    0.9428 N.am      8 UNK        -0.4253 
     50 CA         32.6380   32.2553    1.4064 C.3       8 UNK         0.0242 
     51 CB         34.1639   32.2762    1.1895 C.3       8 UNK        -0.2000 
     52 C          32.2934   32.3827    2.8945 C.2       8 UNK         0.4948 
     53 O          31.8914   31.3933    3.5132 O.2       8 UNK        -0.5275 
     54 N          32.5092   33.5745    3.4686 N.am      9 UNK        -0.4246 
     55 CA         32.3266   33.8495    4.9024 C.3       9 UNK         0.0261 
     56 CB         32.5726   35.3423    5.1739 C.3       9 UNK        -0.1959 
     57 C          33.2126   32.9806    5.8177 C.2       9 UNK         0.5033 
     58 O          32.8091   32.6688    6.9391 O.2       9 UNK        -0.5390 
     59 N          34.3776   32.5638    5.3007 N.am      10 UNK        -0.4215 
     60 CA         35.3088   31.6254    5.9301 C.3       10 UNK         0.0240 
     61 CB         36.5947   31.5620    5.0890 C.3       10 UNK        -0.1982 
     62 C          34.7384   30.2086    6.1409 C.2       10 UNK         0.4970 
     63 O          35.2718   29.4801    6.9787 O.2       10 UNK        -0.4916 
     64 N          33.6831   29.8369    5.4009 N.am      11 UNK        -0.4279 
     65 CA         32.9738   28.5586    5.5620 C.3       11 UNK         0.1003 
     66 C          32.0774   28.4842    6.8326 C.2       11 UNK         0.5709 
     67 N          31.8041   29.5847    7.5264 N.am      11 UNK        -0.7358 
     68 O          31.6369   27.3998    7.2049 O.2       11 UNK        -0.4999 
     69 C69        32.1649   28.1714    4.2966 C.3       12 UNK        -0.0954 
     70 S70        33.1465   28.1674    2.7588 S.3       12 UNK        -0.2268 
     71 C71        34.1076   26.6249    2.8743 C.3       12 UNK         0.0203 
     72 H72        30.4811   27.5376   -4.2410 H         1 UNK         0.0888 
     73 H73        28.9575   27.8820   -5.0646 H         1 UNK         0.0888 
     74 H74        29.7020   29.1068   -4.0327 H         1 UNK         0.0888 
     75 H75        30.1520   26.1314   -2.5275 H         1 UNK         0.3017 
     76 H76        28.2590   26.7127   -0.4453 H         1 UNK         0.0873 
     77 H77        29.3557   24.6659    0.6599 H         1 UNK         0.0745 
     78 H78        30.3434   26.0584    0.3839 H         1 UNK         0.0745 
     79 H79        30.6924   22.4134    0.4311 H         1 UNK         0.0705 
     80 H80        32.3444   22.4533   -0.1393 H         1 UNK         0.0705 
     81 H81        33.1415   25.3003    0.6869 H         1 UNK         0.1334 
     82 H82        33.1366   25.2019    4.9711 H         1 UNK         0.1417 
     83 H83        30.9812   22.2279    2.7699 H         1 UNK         0.1562 
     84 H84        32.0324   23.4929    6.1691 H         1 UNK         0.0748 
     85 H85        31.8301   21.9709    5.3368 H         1 UNK         0.0748 
     86 H86        30.3558   25.4776    5.6027 H         1 UNK         0.0940 
     87 H87        28.7097   25.2307    6.1039 H         1 UNK         0.0940 
     88 H88        29.6817   25.0489    3.1915 H         1 UNK         0.0703 
     89 H89        26.8247   25.3112    3.8764 H         1 UNK         0.3081 
     90 H90        26.0124   22.1900    2.3023 H         1 UNK         0.0719 
     91 H91        24.3915   22.4020    4.1320 H         1 UNK         0.0809 
     92 H92        25.2400   23.7949    4.7957 H         1 UNK         0.0809 
     93 H93        26.0062   22.2154    4.7960 H         1 UNK         0.0809 
     94 H94        24.7544   23.5654    1.1587 H         1 UNK         0.2990 
     95 H95        22.8784   25.2754    1.1506 H         1 UNK         0.0690 
     96 H96        22.6840   27.7064    0.7152 H         1 UNK         0.0788 
     97 H97        24.2523   27.9954    1.4641 H         1 UNK         0.0788 
     98 H98        22.9097   27.4019    2.4286 H         1 UNK         0.0788 
     99 H99        24.9246   26.6228   -0.4777 H         1 UNK         0.2993 
    100 H100       25.4034   23.8282   -2.6425 H         1 UNK         0.0949 
    101 H101       23.4825   25.1298   -3.5799 H         1 UNK         0.0767 
    102 H102       24.2453   26.6376   -3.0909 H         1 UNK         0.0767 
    103 H103       25.0001   25.6192   -4.3160 H         1 UNK         0.0767 
    104 H104       26.6199   26.4509   -2.3797 H         1 UNK         0.3013 
    105 H105       29.0245   26.7873    1.7828 H         1 UNK         0.3121 
    106 H106       28.9432   29.4270    3.0543 H         1 UNK         0.0774 
    107 H107       26.7497   30.0455    2.0691 H         1 UNK         0.0815 
    108 H108       26.5653   28.4314    1.3946 H         1 UNK         0.0815 
    109 H109       26.5329   28.6755    3.1394 H         1 UNK         0.0815 
    110 H110       30.8909   28.1596    1.2950 H         1 UNK         0.2987 
    111 H111       30.5143   29.3282   -1.3651 H         1 UNK         0.0949 
    112 H112       32.8048   28.5024   -1.7886 H         1 UNK         0.0806 
    113 H113       33.0090   28.0702   -0.1028 H         1 UNK         0.0806 
    114 H114       31.8286   27.2245   -1.0982 H         1 UNK         0.0806 
    115 H115       31.8309   30.3650    1.6993 H         1 UNK         0.3010 
    116 H116       32.1648   33.0753    0.8624 H         1 UNK         0.0829 
    117 H117       34.4169   32.1680    0.1347 H         1 UNK         0.0813 
    118 H118       34.6017   33.2163    1.5265 H         1 UNK         0.0813 
    119 H119       34.6571   31.4688    1.7330 H         1 UNK         0.0813 
    120 H120       32.8356   34.3412    2.8969 H         1 UNK         0.3038 
    121 H121       31.2874   33.6228    5.1503 H         1 UNK         0.0769 
    122 H122       32.4209   35.5766    6.2287 H         1 UNK         0.0811 
    123 H123       31.8860   35.9687    4.6041 H         1 UNK         0.0811 
    124 H124       33.5907   35.6385    4.9180 H         1 UNK         0.0811 
    125 H125       34.6182   32.8822    4.3739 H         1 UNK         0.3204 
    126 H126       35.5607   32.0216    6.9159 H         1 UNK         0.0748 
    127 H127       37.3289   30.8971    5.5466 H         1 UNK         0.0771 
    128 H128       36.4006   31.1886    4.0825 H         1 UNK         0.0771 
    129 H129       37.0618   32.5432    5.0008 H         1 UNK         0.0771 
    130 H130       33.2681   30.4850    4.7412 H         1 UNK         0.2980 
    131 H131       33.7327   27.7867    5.6997 H         1 UNK         0.0545 
    132 H132       32.1662   30.4838    7.2387 H         1 UNK         0.3459 
    133 H133       31.2276   29.5149    8.3495 H         1 UNK         0.3459 
    134 H134       31.3391   28.8705    4.1565 H         1 UNK         0.0616 
    135 H135       31.6993   27.1950    4.4184 H         1 UNK         0.0616 
    136 H136       34.8161   26.5965    2.0453 H         1 UNK         0.0634 
    137 H137       34.7096   26.6402    3.7837 H         1 UNK         0.0634 
@<TRIPOS>BOND
     1    1    2 1    
     2    1   72 1    
     3    1   73 1    
     4    1   74 1    
     5    2    3 2    
     6    2    4 am   BACKBONE|DICT|INTERRES
     7    4    5 1    
     8    4   75 1    
     9    5    6 1    
    10    5   35 1    
    11    5   76 1    
    12    6    7 1    
    13    6   77 1    
    14    6   78 1    
    15    7    8 1    
    16    8    9 1    
    17    8   79 1    
    18    8   80 1    
    19    9   10 ar   
    20    9   14 ar   
    21   10   11 ar   
    22   10   81 1    
    23   11   12 ar   
    24   11   71 1    
    25   12   13 ar   
    26   12   82 1    
    27   13   14 ar   
    28   13   15 1    
    29   14   83 1    
    30   15   16 1    
    31   15   84 1    
    32   15   85 1    
    33   16   17 1    
    34   17   18 1    
    35   17   86 1    
    36   17   87 1    
    37   18   19 1    
    38   18   37 1    
    39   18   88 1    
    40   19   20 am   BACKBONE|DICT|INTERRES
    41   19   89 1    
    42   20   21 2    
    43   20   22 1    
    44   22   23 1    
    45   22   24 1    
    46   22   90 1    
    47   23   91 1    
    48   23   92 1    
    49   23   93 1    
    50   24   25 am   BACKBONE|DICT|INTERRES
    51   24   94 1    
    52   25   26 2    
    53   25   27 1    
    54   27   28 1    
    55   27   29 1    
    56   27   95 1    
    57   28   96 1    
    58   28   97 1    
    59   28   98 1    
    60   29   30 am   BACKBONE|DICT|INTERRES
    61   29   99 1    
    62   30   31 2    
    63   30   32 1    
    64   32   33 1    
    65   32   34 1    
    66   32  100 1    
    67   33  101 1    
    68   33  102 1    
    69   33  103 1    
    70   34   35 am   BACKBONE|DICT|INTERRES
    71   34  104 1    
    72   35   36 2    
    73   37   38 2    
    74   37   39 am   BACKBONE|DICT|INTERRES
    75   39   40 1    
    76   39  105 1    
    77   40   41 1    
    78   40   42 1    
    79   40  106 1    
    80   41  107 1    
    81   41  108 1    
    82   41  109 1    
    83   42   43 2    
    84   42   44 am   BACKBONE|DICT|INTERRES
    85   44   45 1    
    86   44  110 1    
    87   45   46 1    
    88   45   47 1    
    89   45  111 1    
    90   46  112 1    
    91   46  113 1    
    92   46  114 1    
    93   47   48 2    
    94   47   49 am   BACKBONE|DICT|INTERRES
    95   49   50 1    
    96   49  115 1    
    97   50   51 1    
    98   50   52 1    
    99   50  116 1    
   100   51  117 1    
   101   51  118 1    
   102   51  119 1    
   103   52   53 2    
   104   52   54 am   BACKBONE|DICT|INTERRES
   105   54   55 1    
   106   54  120 1    
   107   55   56 1    
   108   55   57 1    
   109   55  121 1    
   110   56  122 1    
   111   56  123 1    
   112   56  124 1    
   113   57   58 2    
   114   57   59 am   BACKBONE|DICT|INTERRES
   115   59   60 1    
   116   59  125 1    
   117   60   61 1    
   118   60   62 1    
   119   60  126 1    
   120   61  127 1    
   121   61  128 1    
   122   61  129 1    
   123   62   63 2    
   124   62   64 am   BACKBONE|DICT|INTERRES
   125   64   65 1    
   126   64  130 1    
   127   65   66 1    
   128   65   69 1    
   129   65  131 1    
   130   66   67 am   BACKBONE|DICT|INTERRES
   131   66   68 2    
   132   67  132 1    
   133   67  133 1    
   134   69   70 1    
   135   69  134 1    
   136   69  135 1    
   137   70   71 1    
   138   71  136 1    
   139   71  137 1    
@<TRIPOS>SUBSTRUCTURE
     1 UNK         1 GROUP             0       ****    0 ROOT    
