@<TRIPOS>MOLECULE
3R136
137   139    1
SMALL
USER_CHARGES


@<TRIPOS>ATOM
      1 CA         26.8762   18.9501    0.5082 C.3       0 UNK        -0.1979 
      2 C          27.3867   20.3827    0.5119 C.2       0 UNK         0.4864 
      3 O          26.7815   21.2470   -0.1225 O.2       0 UNK        -0.5359 
      4 N          28.4848   20.6465    1.2369 N.am      1 UNK        -0.4318 
      5 CA         29.1527   21.9543    1.3401 C.3       1 UNK         0.0824 
      6 C6         30.4427   21.8636    2.1980 C.3       12 UNK        -0.0944 
      7 S7         31.7817   22.9375    1.5785 S.3       12 UNK        -0.2672 
      8 C8         32.2563   23.8916    3.0561 C.3       12 UNK         0.0333 
      9 C9         31.7593   25.3268    2.9800 C.ar      12 UNK        -0.0807 
     10 C10        32.5131   26.2848    2.2954 C.ar      12 UNK        -0.0894 
     11 C11        32.0895   27.6154    2.2358 C.ar      12 UNK        -0.0804 
     12 C12        30.8967   27.9791    2.8648 C.ar      12 UNK        -0.0824 
     13 C13        30.1148   27.0267    3.5244 C.ar      12 UNK        -0.0762 
     14 C14        30.5567   25.7009    3.5877 C.ar      12 UNK        -0.0782 
     15 C15        28.7864   27.4248    4.1538 C.3       12 UNK         0.0230 
     16 S16        27.3987   27.2076    2.9971 S.3       12 UNK        -0.2608 
     17 C17        27.5613   28.6449    1.8849 C.3       12 UNK        -0.0989 
     18 CA         28.2877   28.3130    0.5560 C.3       5 UNK         0.0716 
     19 N          27.6516   27.2129   -0.1753 N.am      5 UNK        -0.4135 
     20 C          28.1978   26.5729   -1.2189 C.2       4 UNK         0.5031 
     21 O          29.3038   26.8551   -1.6859 O.2       4 UNK        -0.5229 
     22 CA         27.3878   25.4246   -1.8482 C.3       4 UNK         0.0329 
     23 CB         28.2979   24.3072   -2.3937 C.3       4 UNK        -0.2001 
     24 N          26.4472   24.8319   -0.8950 N.am      4 UNK        -0.4303 
     25 C          25.1289   24.6866   -1.0924 C.2       3 UNK         0.5044 
     26 O          24.5386   25.1297   -2.0787 O.2       3 UNK        -0.5152 
     27 CA         24.3185   23.9080   -0.0373 C.3       3 UNK         0.0319 
     28 CB         23.6509   22.6724   -0.6663 C.3       3 UNK        -0.2001 
     29 N          25.1444   23.4715    1.0907 N.am      3 UNK        -0.4354 
     30 C          25.2415   24.1226    2.2590 C.2       2 UNK         0.4964 
     31 O          24.5666   25.1133    2.5393 O.2       2 UNK        -0.5047 
     32 CA         26.2530   23.5955    3.2989 C.3       2 UNK         0.0288 
     33 CB         25.5215   22.8466    4.4250 C.3       2 UNK        -0.2113 
     34 N          27.3008   22.7257    2.7560 N.am      2 UNK        -0.4145 
     35 C          28.2160   23.0759    1.8388 C.2       1 UNK         0.5006 
     36 O          28.2865   24.1973    1.3391 O.2       1 UNK        -0.5103 
     37 C          28.4280   29.5835   -0.3086 C.2       5 UNK         0.5055 
     38 O          27.6203   29.8110   -1.2142 O.2       5 UNK        -0.5220 
     39 N          29.4374   30.3983    0.0183 N.am      6 UNK        -0.4450 
     40 CA         29.7195   31.6932   -0.5990 C.3       6 UNK         0.0367 
     41 CB         31.2244   31.7451   -0.9368 C.3       6 UNK        -0.1929 
     42 C          29.2855   32.8205    0.3577 C.2       6 UNK         0.5070 
     43 O          28.4195   32.6069    1.2097 O.2       6 UNK        -0.5237 
     44 N          29.8982   34.0050    0.2158 N.am      7 UNK        -0.4739 
     45 CA         29.7699   35.1146    1.1688 C.3       7 UNK         0.0276 
     46 CB         30.3277   36.4008    0.5380 C.3       7 UNK        -0.1927 
     47 C          30.4715   34.8164    2.5085 C.2       7 UNK         0.5013 
     48 O          30.0065   35.2739    3.5533 O.2       7 UNK        -0.5193 
     49 N          31.5608   34.0388    2.4484 N.am      8 UNK        -0.4253 
     50 CA         32.2216   33.4281    3.5998 C.3       8 UNK         0.0242 
     51 CB         33.7082   33.2192    3.2679 C.3       8 UNK        -0.2000 
     52 C          31.5497   32.0854    3.9272 C.2       8 UNK         0.4948 
     53 O          31.0083   31.4393    3.0257 O.2       8 UNK        -0.5275 
     54 N          31.6216   31.6835    5.2004 N.am      9 UNK        -0.4246 
     55 CA         31.0837   30.4245    5.7120 C.3       9 UNK         0.0261 
     56 CB         30.0497   30.7259    6.8094 C.3       9 UNK        -0.1959 
     57 C          32.2215   29.5618    6.2700 C.2       9 UNK         0.5033 
     58 O          33.1873   30.1113    6.8062 O.2       9 UNK        -0.5390 
     59 N          32.0556   28.2334    6.1659 N.am      10 UNK        -0.4215 
     60 CA         32.9566   27.1785    6.6524 C.3       10 UNK         0.0240 
     61 CB         32.9196   27.1095    8.1941 C.3       10 UNK        -0.1982 
     62 C          34.3856   27.3078    6.0895 C.2       10 UNK         0.4970 
     63 O          35.3559   27.3095    6.8496 O.2       10 UNK        -0.4916 
     64 N          34.4765   27.4438    4.7612 N.am      11 UNK        -0.4279 
     65 CA         35.7198   27.7251    4.0247 C.3       11 UNK         0.1003 
     66 C          36.7698   26.5751    4.0173 C.2       11 UNK         0.5709 
     67 N          36.4206   25.3509    4.3952 N.am      11 UNK        -0.7358 
     68 O          37.9242   26.8012    3.6622 O.2       11 UNK        -0.4999 
     69 C69        35.4450   28.2178    2.5779 C.3       12 UNK        -0.0954 
     70 S70        34.1410   29.4922    2.4635 S.3       12 UNK        -0.2268 
     71 C71        32.8844   28.6505    1.4492 C.3       12 UNK         0.0203 
     72 H72        27.4950   18.2938    1.1198 H         1 UNK         0.0888 
     73 H73        26.8687   18.5591   -0.5088 H         1 UNK         0.0888 
     74 H74        25.8579   18.9145    0.8944 H         1 UNK         0.0888 
     75 H75        28.9292   19.8893    1.7368 H         1 UNK         0.3017 
     76 H76        29.4323   22.2158    0.3170 H         1 UNK         0.0873 
     77 H77        30.2375   22.0560    3.2527 H         1 UNK         0.0745 
     78 H78        30.8458   20.8500    2.1669 H         1 UNK         0.0745 
     79 H79        31.9015   23.4089    3.9674 H         1 UNK         0.0705 
     80 H80        33.3450   23.8908    3.1288 H         1 UNK         0.0705 
     81 H81        33.4239   25.9840    1.7972 H         1 UNK         0.1334 
     82 H82        30.5540   29.0005    2.8025 H         1 UNK         0.1417 
     83 H83        29.9553   24.9575    4.0929 H         1 UNK         0.1562 
     84 H84        28.8078   28.4562    4.5055 H         1 UNK         0.0748 
     85 H85        28.6001   26.8098    5.0356 H         1 UNK         0.0748 
     86 H86        28.0713   29.4498    2.4182 H         1 UNK         0.0940 
     87 H87        26.5562   29.0190    1.6800 H         1 UNK         0.0940 
     88 H88        29.2957   27.9700    0.7866 H         1 UNK         0.0703 
     89 H89        26.7442   26.9208    0.1536 H         1 UNK         0.3081 
     90 H90        26.8500   25.8634   -2.6908 H         1 UNK         0.0719 
     91 H91        28.9188   23.8792   -1.6056 H         1 UNK         0.0809 
     92 H92        27.7135   23.4994   -2.8347 H         1 UNK         0.0809 
     93 H93        28.9652   24.6837   -3.1699 H         1 UNK         0.0809 
     94 H94        26.8653   24.4838   -0.0367 H         1 UNK         0.2990 
     95 H95        23.5256   24.5722    0.3124 H         1 UNK         0.0690 
     96 H96        23.0662   22.1197    0.0693 H         1 UNK         0.0788 
     97 H97        24.3856   21.9890   -1.0933 H         1 UNK         0.0788 
     98 H98        22.9704   22.9603   -1.4687 H         1 UNK         0.0788 
     99 H99        25.7410   22.6687    0.9132 H         1 UNK         0.2993 
    100 H100       26.7472   24.4652    3.7345 H         1 UNK         0.0949 
    101 H101       25.0258   21.9478    4.0557 H         1 UNK         0.0767 
    102 H102       26.2086   22.5519    5.2186 H         1 UNK         0.0767 
    103 H103       24.7564   23.4770    4.8808 H         1 UNK         0.0767 
    104 H104       27.3045   21.7707    3.0835 H         1 UNK         0.3013 
    105 H105       29.9809   30.1946    0.8452 H         1 UNK         0.3121 
    106 H106       29.1512   31.8092   -1.5241 H         1 UNK         0.0774 
    107 H107       31.4757   32.6284   -1.5246 H         1 UNK         0.0815 
    108 H108       31.5223   30.8808   -1.5311 H         1 UNK         0.0815 
    109 H109       31.8419   31.7545   -0.0372 H         1 UNK         0.0815 
    110 H110       30.5671   34.1206   -0.5321 H         1 UNK         0.2987 
    111 H111       28.7089   35.2678    1.3793 H         1 UNK         0.0949 
    112 H112       29.7936   36.6581   -0.3770 H         1 UNK         0.0806 
    113 H113       30.2229   37.2454    1.2205 H         1 UNK         0.0806 
    114 H114       31.3870   36.3082    0.2953 H         1 UNK         0.0806 
    115 H115       31.8209   33.6721    1.5459 H         1 UNK         0.3010 
    116 H116       32.1401   34.0900    4.4648 H         1 UNK         0.0829 
    117 H117       34.2353   32.7524    4.1013 H         1 UNK         0.0813 
    118 H118       33.8407   32.5739    2.3985 H         1 UNK         0.0813 
    119 H119       34.2048   34.1671    3.0602 H         1 UNK         0.0813 
    120 H120       32.1686   32.2202    5.8599 H         1 UNK         0.3038 
    121 H121       30.5860   29.8753    4.9156 H         1 UNK         0.0769 
    122 H122       30.4944   31.2656    7.6467 H         1 UNK         0.0811 
    123 H123       29.6181   29.8060    7.2062 H         1 UNK         0.0811 
    124 H124       29.2276   31.3281    6.4221 H         1 UNK         0.0811 
    125 H125       31.2279   27.8985    5.6941 H         1 UNK         0.3204 
    126 H126       32.5637   26.2343    6.2714 H         1 UNK         0.0748 
    127 H127       33.5122   26.2713    8.5631 H         1 UNK         0.0771 
    128 H128       33.3192   28.0164    8.6496 H         1 UNK         0.0771 
    129 H129       31.9023   26.9716    8.5604 H         1 UNK         0.0771 
    130 H130       33.6320   27.4496    4.2074 H         1 UNK         0.2980 
    131 H131       36.1984   28.5525    4.5522 H         1 UNK         0.0545 
    132 H132       35.4814   25.1597    4.7018 H         1 UNK         0.3459 
    133 H133       37.1112   24.6170    4.3887 H         1 UNK         0.3459 
    134 H134       35.1941   27.3801    1.9275 H         1 UNK         0.0616 
    135 H135       36.3549   28.6490    2.1567 H         1 UNK         0.0616 
    136 H136       32.2069   29.4069    1.0514 H         1 UNK         0.0634 
    137 H137       33.3582   28.1891    0.5815 H         1 UNK         0.0634 
@<TRIPOS>BOND
     1    1    2 1    
     2    1   72 1    
     3    1   73 1    
     4    1   74 1    
     5    2    3 2    
     6    2    4 am   BACKBONE|DICT|INTERRES
     7    4    5 1    
     8    4   75 1    
     9    5    6 1    
    10    5   35 1    
    11    5   76 1    
    12    6    7 1    
    13    6   77 1    
    14    6   78 1    
    15    7    8 1    
    16    8    9 1    
    17    8   79 1    
    18    8   80 1    
    19    9   10 ar   
    20    9   14 ar   
    21   10   11 ar   
    22   10   81 1    
    23   11   12 ar   
    24   11   71 1    
    25   12   13 ar   
    26   12   82 1    
    27   13   14 ar   
    28   13   15 1    
    29   14   83 1    
    30   15   16 1    
    31   15   84 1    
    32   15   85 1    
    33   16   17 1    
    34   17   18 1    
    35   17   86 1    
    36   17   87 1    
    37   18   19 1    
    38   18   37 1    
    39   18   88 1    
    40   19   20 am   BACKBONE|DICT|INTERRES
    41   19   89 1    
    42   20   21 2    
    43   20   22 1    
    44   22   23 1    
    45   22   24 1    
    46   22   90 1    
    47   23   91 1    
    48   23   92 1    
    49   23   93 1    
    50   24   25 am   BACKBONE|DICT|INTERRES
    51   24   94 1    
    52   25   26 2    
    53   25   27 1    
    54   27   28 1    
    55   27   29 1    
    56   27   95 1    
    57   28   96 1    
    58   28   97 1    
    59   28   98 1    
    60   29   30 am   BACKBONE|DICT|INTERRES
    61   29   99 1    
    62   30   31 2    
    63   30   32 1    
    64   32   33 1    
    65   32   34 1    
    66   32  100 1    
    67   33  101 1    
    68   33  102 1    
    69   33  103 1    
    70   34   35 am   BACKBONE|DICT|INTERRES
    71   34  104 1    
    72   35   36 2    
    73   37   38 2    
    74   37   39 am   BACKBONE|DICT|INTERRES
    75   39   40 1    
    76   39  105 1    
    77   40   41 1    
    78   40   42 1    
    79   40  106 1    
    80   41  107 1    
    81   41  108 1    
    82   41  109 1    
    83   42   43 2    
    84   42   44 am   BACKBONE|DICT|INTERRES
    85   44   45 1    
    86   44  110 1    
    87   45   46 1    
    88   45   47 1    
    89   45  111 1    
    90   46  112 1    
    91   46  113 1    
    92   46  114 1    
    93   47   48 2    
    94   47   49 am   BACKBONE|DICT|INTERRES
    95   49   50 1    
    96   49  115 1    
    97   50   51 1    
    98   50   52 1    
    99   50  116 1    
   100   51  117 1    
   101   51  118 1    
   102   51  119 1    
   103   52   53 2    
   104   52   54 am   BACKBONE|DICT|INTERRES
   105   54   55 1    
   106   54  120 1    
   107   55   56 1    
   108   55   57 1    
   109   55  121 1    
   110   56  122 1    
   111   56  123 1    
   112   56  124 1    
   113   57   58 2    
   114   57   59 am   BACKBONE|DICT|INTERRES
   115   59   60 1    
   116   59  125 1    
   117   60   61 1    
   118   60   62 1    
   119   60  126 1    
   120   61  127 1    
   121   61  128 1    
   122   61  129 1    
   123   62   63 2    
   124   62   64 am   BACKBONE|DICT|INTERRES
   125   64   65 1    
   126   64  130 1    
   127   65   66 1    
   128   65   69 1    
   129   65  131 1    
   130   66   67 am   BACKBONE|DICT|INTERRES
   131   66   68 2    
   132   67  132 1    
   133   67  133 1    
   134   69   70 1    
   135   69  134 1    
   136   69  135 1    
   137   70   71 1    
   138   71  136 1    
   139   71  137 1    
@<TRIPOS>SUBSTRUCTURE
     1 UNK         1 GROUP             0       ****    0 ROOT    
