@<TRIPOS>MOLECULE
3R136
137   139    1
SMALL
USER_CHARGES


@<TRIPOS>ATOM
      1 CA         25.4772   19.9466    1.9651 C.3       0 UNK        -0.1979 
      2 C          26.3403   20.9613    1.2305 C.2       0 UNK         0.4864 
      3 O          25.8054   21.8248    0.5334 O.2       0 UNK        -0.5359 
      4 N          27.6699   20.8694    1.3909 N.am      1 UNK        -0.4318 
      5 CA         28.6703   21.7415    0.7565 C.3       1 UNK         0.0824 
      6 C6         30.1139   21.2464    1.0452 C.3       12 UNK        -0.0944 
      7 S7         31.3096   21.7614   -0.2354 S.3       12 UNK        -0.2672 
      8 C8         32.7330   22.3428    0.7556 C.3       12 UNK         0.0333 
      9 C9         32.4321   23.5673    1.6163 C.ar      12 UNK        -0.0807 
     10 C10        32.8728   23.6158    2.9445 C.ar      12 UNK        -0.0894 
     11 C11        32.5884   24.7228    3.7527 C.ar      12 UNK        -0.0804 
     12 C12        31.8455   25.7812    3.2226 C.ar      12 UNK        -0.0824 
     13 C13        31.4031   25.7462    1.8994 C.ar      12 UNK        -0.0762 
     14 C14        31.7196   24.6514    1.0941 C.ar      12 UNK        -0.0782 
     15 C15        30.5119   26.8520    1.3704 C.3       12 UNK         0.0230 
     16 S16        31.4439   28.1620    0.5287 S.3       12 UNK        -0.2608 
     17 C17        30.2036   29.4993    0.5876 C.3       12 UNK        -0.0989 
     18 CA         29.3029   29.6057   -0.6704 C.3       5 UNK         0.0716 
     19 N          28.6750   28.3232   -0.9969 N.am      5 UNK        -0.4135 
     20 C          28.3834   27.9011   -2.2319 C.2       4 UNK         0.5031 
     21 O          28.6047   28.5541   -3.2522 O.2       4 UNK        -0.5229 
     22 CA         27.7249   26.5150   -2.3518 C.3       4 UNK         0.0329 
     23 CB         28.7828   25.4554   -2.7000 C.3       4 UNK        -0.2001 
     24 N          26.9844   26.0895   -1.1561 N.am      4 UNK        -0.4303 
     25 C          25.8810   26.6950   -0.6875 C.2       3 UNK         0.5044 
     26 O          25.4314   27.7406   -1.1577 O.2       3 UNK        -0.5152 
     27 CA         25.1581   26.0512    0.5101 C.3       3 UNK         0.0319 
     28 CB         24.0125   25.1516    0.0207 C.3       3 UNK        -0.2001 
     29 N          26.0332   25.2743    1.3888 N.am      3 UNK        -0.4354 
     30 C          27.0065   25.7971    2.1471 C.2       2 UNK         0.4964 
     31 O          27.2677   27.0000    2.1890 O.2       2 UNK        -0.5047 
     32 CA         27.8523   24.8137    2.9787 C.3       2 UNK         0.0288 
     33 CB         27.2223   24.6174    4.3676 C.3       2 UNK        -0.2113 
     34 N          28.0715   23.4942    2.3734 N.am      2 UNK        -0.4145 
     35 C          28.4895   23.2306    1.1241 C.2       1 UNK         0.5006 
     36 O          28.6806   24.0924    0.2659 O.2       1 UNK        -0.5103 
     37 C          28.2528   30.7160   -0.4461 C.2       5 UNK         0.5055 
     38 O          28.6454   31.8641   -0.2362 O.2       5 UNK        -0.5220 
     39 N          26.9568   30.3606   -0.4021 N.am      6 UNK        -0.4450 
     40 CA         25.8037   31.1452    0.0679 C.3       6 UNK         0.0367 
     41 CB         25.6336   32.4727   -0.6970 C.3       6 UNK        -0.1929 
     42 C          25.8057   31.3585    1.5946 C.2       6 UNK         0.5070 
     43 O          24.7858   31.1076    2.2366 O.2       6 UNK        -0.5237 
     44 N          26.9491   31.7690    2.1529 N.am      7 UNK        -0.4739 
     45 CA         27.2454   31.7968    3.5814 C.3       7 UNK         0.0276 
     46 CB         27.3233   33.2536    4.0668 C.3       7 UNK        -0.1927 
     47 C          28.5854   31.0792    3.7690 C.2       7 UNK         0.5013 
     48 O          29.5714   31.4714    3.1406 O.2       7 UNK        -0.5193 
     49 N          28.6128   30.0393    4.6111 N.am      8 UNK        -0.4253 
     50 CA         29.7506   29.1323    4.8176 C.3       8 UNK         0.0242 
     51 CB         29.2243   27.8091    5.4030 C.3       8 UNK        -0.2000 
     52 C          30.9093   29.7302    5.6439 C.2       8 UNK         0.4948 
     53 O          31.4437   29.0608    6.5283 O.2       8 UNK        -0.5275 
     54 N          31.2885   30.9751    5.3373 N.am      9 UNK        -0.4246 
     55 CA         32.4234   31.6763    5.9395 C.3       9 UNK         0.0261 
     56 CB         32.1432   33.1878    5.9219 C.3       9 UNK        -0.1959 
     57 C          33.7490   31.3714    5.2211 C.2       9 UNK         0.5033 
     58 O          34.8058   31.4724    5.8457 O.2       9 UNK        -0.5390 
     59 N          33.6790   31.0177    3.9281 N.am      10 UNK        -0.4215 
     60 CA         34.8266   30.8383    3.0302 C.3       10 UNK         0.0240 
     61 CB         34.3177   30.5712    1.6053 C.3       10 UNK        -0.1982 
     62 C          35.8197   29.7425    3.4560 C.2       10 UNK         0.4970 
     63 O          37.0127   29.8801    3.1823 O.2       10 UNK        -0.4916 
     64 N          35.3215   28.6913    4.1177 N.am      11 UNK        -0.4279 
     65 CA         36.1337   27.6155    4.7048 C.3       11 UNK         0.1003 
     66 C          36.7939   27.9722    6.0712 C.2       11 UNK         0.5709 
     67 N          36.5533   29.1425    6.6536 N.am      11 UNK        -0.7358 
     68 O          37.5613   27.1754    6.6065 O.2       11 UNK        -0.4999 
     69 C69        35.3634   26.2684    4.7365 C.3       12 UNK        -0.0954 
     70 S70        33.8181   26.3226    5.7038 S.3       12 UNK        -0.2268 
     71 C71        33.0407   24.7479    5.2099 C.3       12 UNK         0.0203 
     72 H72        24.8830   19.3753    1.2525 H         1 UNK         0.0888 
     73 H73        26.0756   19.2454    2.5466 H         1 UNK         0.0888 
     74 H74        24.7958   20.4568    2.6454 H         1 UNK         0.0888 
     75 H75        28.0401   20.1333    1.9757 H         1 UNK         0.3017 
     76 H76        28.4921   21.6629   -0.3184 H         1 UNK         0.0873 
     77 H77        30.1390   20.1556    1.0605 H         1 UNK         0.0745 
     78 H78        30.4507   21.5622    2.0346 H         1 UNK         0.0745 
     79 H79        33.5508   22.5901    0.0778 H         1 UNK         0.0705 
     80 H80        33.0843   21.5144    1.3729 H         1 UNK         0.0705 
     81 H81        33.4304   22.7846    3.3543 H         1 UNK         0.1334 
     82 H82        31.6003   26.6282    3.8468 H         1 UNK         0.1417 
     83 H83        31.3678   24.6238    0.0716 H         1 UNK         0.1562 
     84 H84        29.9404   27.2722    2.1970 H         1 UNK         0.0748 
     85 H85        29.7818   26.4338    0.6787 H         1 UNK         0.0748 
     86 H86        30.7478   30.4345    0.7362 H         1 UNK         0.0940 
     87 H87        29.5913   29.3763    1.4817 H         1 UNK         0.0940 
     88 H88        29.9310   29.9193   -1.5070 H         1 UNK         0.0703 
     89 H89        28.4439   27.7227   -0.2189 H         1 UNK         0.3081 
     90 H90        27.0109   26.5661   -3.1765 H         1 UNK         0.0719 
     91 H91        28.3349   24.4694   -2.8248 H         1 UNK         0.0809 
     92 H92        29.2896   25.7020   -3.6340 H         1 UNK         0.0809 
     93 H93        29.5480   25.3799   -1.9262 H         1 UNK         0.0809 
     94 H94        27.3378   25.2671   -0.6751 H         1 UNK         0.2990 
     95 H95        24.7262   26.8614    1.1017 H         1 UNK         0.0690 
     96 H96        23.3289   25.7042   -0.6255 H         1 UNK         0.0788 
     97 H97        23.4266   24.7657    0.8552 H         1 UNK         0.0788 
     98 H98        24.3851   24.2991   -0.5493 H         1 UNK         0.0788 
     99 H99        25.9102   24.2702    1.3837 H         1 UNK         0.2993 
    100 H100       28.8334   25.2686    3.1149 H         1 UNK         0.0949 
    101 H101       26.2888   24.0560    4.3097 H         1 UNK         0.0767 
    102 H102       27.8964   24.0813    5.0362 H         1 UNK         0.0767 
    103 H103       26.9925   25.5723    4.8413 H         1 UNK         0.0767 
    104 H104       27.9208   22.7025    2.9811 H         1 UNK         0.3013 
    105 H105       26.7320   29.3951   -0.6143 H         1 UNK         0.3121 
    106 H106       24.9308   30.5303   -0.1590 H         1 UNK         0.0774 
    107 H107       26.4288   33.1843   -0.4742 H         1 UNK         0.0815 
    108 H108       24.6919   32.9527   -0.4281 H         1 UNK         0.0815 
    109 H109       25.6191   32.3105   -1.7746 H         1 UNK         0.0815 
    110 H110       27.7439   31.9341    1.5397 H         1 UNK         0.2987 
    111 H111       26.4717   31.2720    4.1464 H         1 UNK         0.0949 
    112 H112       28.0894   33.8181    3.5333 H         1 UNK         0.0806 
    113 H113       26.3721   33.7671    3.9258 H         1 UNK         0.0806 
    114 H114       27.5634   33.2988    5.1298 H         1 UNK         0.0806 
    115 H115       27.7694   29.8080    5.1164 H         1 UNK         0.3010 
    116 H116       30.1775   28.9077    3.8393 H         1 UNK         0.0829 
    117 H117       30.0239   27.0790    5.5326 H         1 UNK         0.0813 
    118 H118       28.7599   27.9570    6.3786 H         1 UNK         0.0813 
    119 H119       28.4849   27.3613    4.7413 H         1 UNK         0.0813 
    120 H120       30.7864   31.4429    4.5860 H         1 UNK         0.3038 
    121 H121       32.5311   31.3635    6.9805 H         1 UNK         0.0769 
    122 H122       32.0195   33.5657    4.9061 H         1 UNK         0.0811 
    123 H123       32.9639   33.7423    6.3793 H         1 UNK         0.0811 
    124 H124       31.2392   33.4292    6.4815 H         1 UNK         0.0811 
    125 H125       32.7646   30.9552    3.5054 H         1 UNK         0.3204 
    126 H126       35.3758   31.7822    3.0222 H         1 UNK         0.0748 
    127 H127       33.6648   31.3709    1.2546 H         1 UNK         0.0771 
    128 H128       35.1477   30.5002    0.9008 H         1 UNK         0.0771 
    129 H129       33.7644   29.6340    1.5489 H         1 UNK         0.0771 
    130 H130       34.3343   28.6601    4.3233 H         1 UNK         0.2980 
    131 H131       36.9789   27.4525    4.0335 H         1 UNK         0.0545 
    132 H132       36.9993   29.3501    7.5325 H         1 UNK         0.3459 
    133 H133       35.9388   29.8289    6.2303 H         1 UNK         0.3459 
    134 H134       35.1189   25.9760    3.7141 H         1 UNK         0.0616 
    135 H135       35.9943   25.4691    5.1292 H         1 UNK         0.0616 
    136 H136       33.7388   23.9348    5.4149 H         1 UNK         0.0634 
    137 H137       32.1706   24.5769    5.8448 H         1 UNK         0.0634 
@<TRIPOS>BOND
     1    1    2 1    
     2    1   72 1    
     3    1   73 1    
     4    1   74 1    
     5    2    3 2    
     6    2    4 am   BACKBONE|DICT|INTERRES
     7    4    5 1    
     8    4   75 1    
     9    5    6 1    
    10    5   35 1    
    11    5   76 1    
    12    6    7 1    
    13    6   77 1    
    14    6   78 1    
    15    7    8 1    
    16    8    9 1    
    17    8   79 1    
    18    8   80 1    
    19    9   10 ar   
    20    9   14 ar   
    21   10   11 ar   
    22   10   81 1    
    23   11   12 ar   
    24   11   71 1    
    25   12   13 ar   
    26   12   82 1    
    27   13   14 ar   
    28   13   15 1    
    29   14   83 1    
    30   15   16 1    
    31   15   84 1    
    32   15   85 1    
    33   16   17 1    
    34   17   18 1    
    35   17   86 1    
    36   17   87 1    
    37   18   19 1    
    38   18   37 1    
    39   18   88 1    
    40   19   20 am   BACKBONE|DICT|INTERRES
    41   19   89 1    
    42   20   21 2    
    43   20   22 1    
    44   22   23 1    
    45   22   24 1    
    46   22   90 1    
    47   23   91 1    
    48   23   92 1    
    49   23   93 1    
    50   24   25 am   BACKBONE|DICT|INTERRES
    51   24   94 1    
    52   25   26 2    
    53   25   27 1    
    54   27   28 1    
    55   27   29 1    
    56   27   95 1    
    57   28   96 1    
    58   28   97 1    
    59   28   98 1    
    60   29   30 am   BACKBONE|DICT|INTERRES
    61   29   99 1    
    62   30   31 2    
    63   30   32 1    
    64   32   33 1    
    65   32   34 1    
    66   32  100 1    
    67   33  101 1    
    68   33  102 1    
    69   33  103 1    
    70   34   35 am   BACKBONE|DICT|INTERRES
    71   34  104 1    
    72   35   36 2    
    73   37   38 2    
    74   37   39 am   BACKBONE|DICT|INTERRES
    75   39   40 1    
    76   39  105 1    
    77   40   41 1    
    78   40   42 1    
    79   40  106 1    
    80   41  107 1    
    81   41  108 1    
    82   41  109 1    
    83   42   43 2    
    84   42   44 am   BACKBONE|DICT|INTERRES
    85   44   45 1    
    86   44  110 1    
    87   45   46 1    
    88   45   47 1    
    89   45  111 1    
    90   46  112 1    
    91   46  113 1    
    92   46  114 1    
    93   47   48 2    
    94   47   49 am   BACKBONE|DICT|INTERRES
    95   49   50 1    
    96   49  115 1    
    97   50   51 1    
    98   50   52 1    
    99   50  116 1    
   100   51  117 1    
   101   51  118 1    
   102   51  119 1    
   103   52   53 2    
   104   52   54 am   BACKBONE|DICT|INTERRES
   105   54   55 1    
   106   54  120 1    
   107   55   56 1    
   108   55   57 1    
   109   55  121 1    
   110   56  122 1    
   111   56  123 1    
   112   56  124 1    
   113   57   58 2    
   114   57   59 am   BACKBONE|DICT|INTERRES
   115   59   60 1    
   116   59  125 1    
   117   60   61 1    
   118   60   62 1    
   119   60  126 1    
   120   61  127 1    
   121   61  128 1    
   122   61  129 1    
   123   62   63 2    
   124   62   64 am   BACKBONE|DICT|INTERRES
   125   64   65 1    
   126   64  130 1    
   127   65   66 1    
   128   65   69 1    
   129   65  131 1    
   130   66   67 am   BACKBONE|DICT|INTERRES
   131   66   68 2    
   132   67  132 1    
   133   67  133 1    
   134   69   70 1    
   135   69  134 1    
   136   69  135 1    
   137   70   71 1    
   138   71  136 1    
   139   71  137 1    
@<TRIPOS>SUBSTRUCTURE
     1 UNK         1 GROUP             0       ****    0 ROOT    
