@<TRIPOS>MOLECULE
3R136
137   139    1
SMALL
USER_CHARGES


@<TRIPOS>ATOM
      1 CA         28.7151   19.9256    0.8354 C.3       0 UNK        -0.1979 
      2 C          29.1920   21.1456    0.0622 C.2       0 UNK         0.4864 
      3 O          29.5982   21.0205   -1.0947 O.2       0 UNK        -0.5359 
      4 N          29.1316   22.3318    0.6815 N.am      1 UNK        -0.4318 
      5 CA         29.5708   23.6170    0.1203 C.3       1 UNK         0.0824 
      6 C6         29.9370   24.6284    1.2353 C.3       12 UNK        -0.0944 
      7 S7         31.3450   24.0598    2.2460 S.3       12 UNK        -0.2672 
      8 C8         30.5338   23.6041    3.8149 C.3       12 UNK         0.0333 
      9 C9         29.9772   24.8167    4.5486 C.ar      12 UNK        -0.0807 
     10 C10        30.8458   25.8090    5.0102 C.ar      12 UNK        -0.0894 
     11 C11        30.3520   26.9367    5.6698 C.ar      12 UNK        -0.0804 
     12 C12        28.9773   27.0611    5.8848 C.ar      12 UNK        -0.0824 
     13 C13        28.0962   26.0702    5.4381 C.ar      12 UNK        -0.0762 
     14 C14        28.6022   24.9481    4.7728 C.ar      12 UNK        -0.0782 
     15 C15        26.5991   26.2155    5.6872 C.3       12 UNK         0.0230 
     16 S16        25.6209   26.3302    4.1515 S.3       12 UNK        -0.2608 
     17 C17        26.3967   27.7384    3.2855 C.3       12 UNK        -0.0989 
     18 CA         26.9087   27.3088    1.8828 C.3       5 UNK         0.0716 
     19 N          25.8486   26.9198    0.9430 N.am      5 UNK        -0.4135 
     20 C          24.8384   27.6890    0.5087 C.2       4 UNK         0.5031 
     21 O          24.6264   28.8348    0.9083 O.2       4 UNK        -0.5229 
     22 CA         23.9105   27.1145   -0.5798 C.3       4 UNK         0.0329 
     23 CB         24.0226   27.9448   -1.8705 C.3       4 UNK        -0.2001 
     24 N          24.1672   25.7136   -0.9149 N.am      4 UNK        -0.4303 
     25 C          23.8164   24.6418   -0.1962 C.2       3 UNK         0.5044 
     26 O          23.2148   24.7102    0.8753 O.2       3 UNK        -0.5152 
     27 CA         24.2182   23.2568   -0.7473 C.3       3 UNK         0.0319 
     28 CB         23.0859   22.6554   -1.6023 C.3       3 UNK        -0.2001 
     29 N          25.5085   23.2177   -1.4597 N.am      3 UNK        -0.4354 
     30 C          25.8651   23.8195   -2.6067 C.2       2 UNK         0.4964 
     31 O          25.0919   24.4956   -3.2868 O.2       2 UNK        -0.5047 
     32 CA         27.3380   23.6858   -3.0469 C.3       2 UNK         0.0288 
     33 CB         27.8097   24.9056   -3.8668 C.3       2 UNK        -0.2113 
     34 N          28.2743   23.4205   -1.9454 N.am      2 UNK        -0.4145 
     35 C          28.5184   24.1753   -0.8633 C.2       1 UNK         0.5006 
     36 O          27.9295   25.2313   -0.6134 O.2       1 UNK        -0.5103 
     37 C          27.8526   28.3304    1.2199 C.2       5 UNK         0.5055 
     38 O          28.1094   29.4055    1.7671 O.2       5 UNK        -0.5220 
     39 N          28.3571   27.9646    0.0332 N.am      6 UNK        -0.4450 
     40 CA         29.2595   28.7539   -0.8079 C.3       6 UNK         0.0367 
     41 CB         29.1590   28.2358   -2.2543 C.3       6 UNK        -0.1929 
     42 C          30.7086   28.7531   -0.2783 C.2       6 UNK         0.5070 
     43 O          31.6360   28.3890   -1.0029 O.2       6 UNK        -0.5237 
     44 N          30.8743   29.1574    0.9836 N.am      7 UNK        -0.4739 
     45 CA         32.1481   29.2469    1.6971 C.3       7 UNK         0.0276 
     46 CB         32.4690   27.8964    2.3636 C.3       7 UNK        -0.1927 
     47 C          32.1280   30.4258    2.6839 C.2       7 UNK         0.5013 
     48 O          32.7159   30.3407    3.7647 O.2       7 UNK        -0.5193 
     49 N          31.4475   31.5156    2.2973 N.am      8 UNK        -0.4253 
     50 CA         31.3467   32.7636    3.0569 C.3       8 UNK         0.0242 
     51 CB         30.4231   33.7427    2.3133 C.3       8 UNK        -0.2000 
     52 C          32.7351   33.3808    3.2936 C.2       8 UNK         0.4948 
     53 O          33.4352   33.6826    2.3250 O.2       8 UNK        -0.5275 
     54 N          33.1114   33.5007    4.5747 N.am      9 UNK        -0.4246 
     55 CA         34.4271   33.9172    5.0812 C.3       9 UNK         0.0261 
     56 CB         34.7460   35.3740    4.6795 C.3       9 UNK        -0.1959 
     57 C          35.5777   32.9430    4.7386 C.2       9 UNK         0.5033 
     58 O          36.7424   33.3313    4.8462 O.2       9 UNK        -0.5390 
     59 N          35.2495   31.6965    4.3696 N.am      10 UNK        -0.4215 
     60 CA         36.1955   30.6223    4.0537 C.3       10 UNK         0.0240 
     61 CB         36.1874   30.3766    2.5328 C.3       10 UNK        -0.1982 
     62 C          35.8690   29.3450    4.8501 C.2       10 UNK         0.4970 
     63 O          36.2471   28.2515    4.4272 O.2       10 UNK        -0.4916 
     64 N          35.1675   29.4992    5.9814 N.am      11 UNK        -0.4279 
     65 CA         34.7105   28.4057    6.8525 C.3       11 UNK         0.1003 
     66 C          35.8149   27.7695    7.7481 C.2       11 UNK         0.5709 
     67 N          37.0123   28.3378    7.8324 N.am      11 UNK        -0.7358 
     68 O          35.5855   26.7358    8.3709 O.2       11 UNK        -0.4999 
     69 C69        33.4596   28.8411    7.6720 C.3       12 UNK        -0.0954 
     70 S70        32.1549   27.5709    7.6655 S.3       12 UNK        -0.2268 
     71 C71        31.3081   28.0265    6.1236 C.3       12 UNK         0.0203 
     72 H72        28.3815   20.1837    1.8404 H         1 UNK         0.0888 
     73 H73        27.8848   19.4510    0.3132 H         1 UNK         0.0888 
     74 H74        29.5227   19.1993    0.9229 H         1 UNK         0.0888 
     75 H75        28.7657   22.3743    1.6208 H         1 UNK         0.3017 
     76 H76        30.4756   23.4443   -0.4674 H         1 UNK         0.0873 
     77 H77        29.0778   24.8168    1.8774 H         1 UNK         0.0745 
     78 H78        30.2174   25.5923    0.8056 H         1 UNK         0.0745 
     79 H79        29.7524   22.8688    3.6199 H         1 UNK         0.0705 
     80 H80        31.2651   23.1095    4.4557 H         1 UNK         0.0705 
     81 H81        31.9096   25.7107    4.8403 H         1 UNK         0.1334 
     82 H82        28.5940   27.9330    6.3975 H         1 UNK         0.1417 
     83 H83        27.9202   24.1837    4.4257 H         1 UNK         0.1562 
     84 H84        26.3909   27.0952    6.2984 H         1 UNK         0.0748 
     85 H85        26.2503   25.3569    6.2625 H         1 UNK         0.0748 
     86 H86        27.2180   28.1256    3.8895 H         1 UNK         0.0940 
     87 H87        25.6788   28.5562    3.2191 H         1 UNK         0.0940 
     88 H88        27.5165   26.4174    2.0302 H         1 UNK         0.0703 
     89 H89        25.9648   26.0135    0.5116 H         1 UNK         0.3081 
     90 H90        22.8875   27.1949   -0.2063 H         1 UNK         0.0719 
     91 H91        23.7885   28.9943   -1.6860 H         1 UNK         0.0809 
     92 H92        25.0294   27.9034   -2.2887 H         1 UNK         0.0809 
     93 H93        23.3281   27.5901   -2.6324 H         1 UNK         0.0809 
     94 H94        24.6124   25.5311   -1.8107 H         1 UNK         0.2990 
     95 H95        24.3475   22.6096    0.1218 H         1 UNK         0.0690 
     96 H96        23.3339   21.6482   -1.9371 H         1 UNK         0.0788 
     97 H97        22.8735   23.2598   -2.4847 H         1 UNK         0.0788 
     98 H98        22.1607   22.5873   -1.0285 H         1 UNK         0.0788 
     99 H99        26.2363   22.7083   -0.9795 H         1 UNK         0.2993 
    100 H100       27.3779   22.8114   -3.6982 H         1 UNK         0.0949 
    101 H101       27.6877   25.8341   -3.3092 H         1 UNK         0.0767 
    102 H102       28.8588   24.8164   -4.1486 H         1 UNK         0.0767 
    103 H103       27.2356   25.0045   -4.7890 H         1 UNK         0.0767 
    104 H104       28.7782   22.5375   -1.9961 H         1 UNK         0.3013 
    105 H105       28.1343   27.0303   -0.3068 H         1 UNK         0.3121 
    106 H106       28.9168   29.7908   -0.8021 H         1 UNK         0.0774 
    107 H107       29.5009   27.2031   -2.3346 H         1 UNK         0.0815 
    108 H108       28.1339   28.2810   -2.6222 H         1 UNK         0.0815 
    109 H109       29.7707   28.8359   -2.9292 H         1 UNK         0.0815 
    110 H110       30.0406   29.4200    1.5054 H         1 UNK         0.2987 
    111 H111       32.9446   29.4719    0.9845 H         1 UNK         0.0949 
    112 H112       32.5928   27.1083    1.6207 H         1 UNK         0.0806 
    113 H113       33.3927   27.9420    2.9423 H         1 UNK         0.0806 
    114 H114       31.6681   27.5923    3.0352 H         1 UNK         0.0806 
    115 H115       31.0238   31.5094    1.3812 H         1 UNK         0.3010 
    116 H116       30.8884   32.5273    4.0196 H         1 UNK         0.0829 
    117 H117       30.8107   33.9932    1.3249 H         1 UNK         0.0813 
    118 H118       30.3184   34.6763    2.8678 H         1 UNK         0.0813 
    119 H119       29.4228   33.3278    2.1871 H         1 UNK         0.0813 
    120 H120       32.4545   33.2070    5.2854 H         1 UNK         0.3038 
    121 H121       34.3433   33.8950    6.1687 H         1 UNK         0.0769 
    122 H122       33.9278   36.0460    4.9382 H         1 UNK         0.0811 
    123 H123       34.9338   35.4689    3.6098 H         1 UNK         0.0811 
    124 H124       35.6354   35.7371    5.1960 H         1 UNK         0.0811 
    125 H125       34.2673   31.4419    4.2874 H         1 UNK         0.3204 
    126 H126       37.2068   30.9106    4.3468 H         1 UNK         0.0748 
    127 H127       35.2196   30.0094    2.1911 H         1 UNK         0.0771 
    128 H128       36.4112   31.2913    1.9835 H         1 UNK         0.0771 
    129 H129       36.9376   29.6378    2.2481 H         1 UNK         0.0771 
    130 H130       34.9260   30.4331    6.2749 H         1 UNK         0.2980 
    131 H131       34.4084   27.6037    6.1757 H         1 UNK         0.0545 
    132 H132       37.2154   29.1831    7.3244 H         1 UNK         0.3459 
    133 H133       37.7197   27.9134    8.4114 H         1 UNK         0.3459 
    134 H134       33.0241   29.7584    7.2714 H         1 UNK         0.0616 
    135 H135       33.7152   29.0768    8.7069 H         1 UNK         0.0616 
    136 H136       32.0511   28.2018    5.3449 H         1 UNK         0.0634 
    137 H137       30.7816   28.9718    6.2635 H         1 UNK         0.0634 
@<TRIPOS>BOND
     1    1    2 1    
     2    1   72 1    
     3    1   73 1    
     4    1   74 1    
     5    2    3 2    
     6    2    4 am   BACKBONE|DICT|INTERRES
     7    4    5 1    
     8    4   75 1    
     9    5    6 1    
    10    5   35 1    
    11    5   76 1    
    12    6    7 1    
    13    6   77 1    
    14    6   78 1    
    15    7    8 1    
    16    8    9 1    
    17    8   79 1    
    18    8   80 1    
    19    9   10 ar   
    20    9   14 ar   
    21   10   11 ar   
    22   10   81 1    
    23   11   12 ar   
    24   11   71 1    
    25   12   13 ar   
    26   12   82 1    
    27   13   14 ar   
    28   13   15 1    
    29   14   83 1    
    30   15   16 1    
    31   15   84 1    
    32   15   85 1    
    33   16   17 1    
    34   17   18 1    
    35   17   86 1    
    36   17   87 1    
    37   18   19 1    
    38   18   37 1    
    39   18   88 1    
    40   19   20 am   BACKBONE|DICT|INTERRES
    41   19   89 1    
    42   20   21 2    
    43   20   22 1    
    44   22   23 1    
    45   22   24 1    
    46   22   90 1    
    47   23   91 1    
    48   23   92 1    
    49   23   93 1    
    50   24   25 am   BACKBONE|DICT|INTERRES
    51   24   94 1    
    52   25   26 2    
    53   25   27 1    
    54   27   28 1    
    55   27   29 1    
    56   27   95 1    
    57   28   96 1    
    58   28   97 1    
    59   28   98 1    
    60   29   30 am   BACKBONE|DICT|INTERRES
    61   29   99 1    
    62   30   31 2    
    63   30   32 1    
    64   32   33 1    
    65   32   34 1    
    66   32  100 1    
    67   33  101 1    
    68   33  102 1    
    69   33  103 1    
    70   34   35 am   BACKBONE|DICT|INTERRES
    71   34  104 1    
    72   35   36 2    
    73   37   38 2    
    74   37   39 am   BACKBONE|DICT|INTERRES
    75   39   40 1    
    76   39  105 1    
    77   40   41 1    
    78   40   42 1    
    79   40  106 1    
    80   41  107 1    
    81   41  108 1    
    82   41  109 1    
    83   42   43 2    
    84   42   44 am   BACKBONE|DICT|INTERRES
    85   44   45 1    
    86   44  110 1    
    87   45   46 1    
    88   45   47 1    
    89   45  111 1    
    90   46  112 1    
    91   46  113 1    
    92   46  114 1    
    93   47   48 2    
    94   47   49 am   BACKBONE|DICT|INTERRES
    95   49   50 1    
    96   49  115 1    
    97   50   51 1    
    98   50   52 1    
    99   50  116 1    
   100   51  117 1    
   101   51  118 1    
   102   51  119 1    
   103   52   53 2    
   104   52   54 am   BACKBONE|DICT|INTERRES
   105   54   55 1    
   106   54  120 1    
   107   55   56 1    
   108   55   57 1    
   109   55  121 1    
   110   56  122 1    
   111   56  123 1    
   112   56  124 1    
   113   57   58 2    
   114   57   59 am   BACKBONE|DICT|INTERRES
   115   59   60 1    
   116   59  125 1    
   117   60   61 1    
   118   60   62 1    
   119   60  126 1    
   120   61  127 1    
   121   61  128 1    
   122   61  129 1    
   123   62   63 2    
   124   62   64 am   BACKBONE|DICT|INTERRES
   125   64   65 1    
   126   64  130 1    
   127   65   66 1    
   128   65   69 1    
   129   65  131 1    
   130   66   67 am   BACKBONE|DICT|INTERRES
   131   66   68 2    
   132   67  132 1    
   133   67  133 1    
   134   69   70 1    
   135   69  134 1    
   136   69  135 1    
   137   70   71 1    
   138   71  136 1    
   139   71  137 1    
@<TRIPOS>SUBSTRUCTURE
     1 UNK         1 GROUP             0       ****    0 ROOT    
