@<TRIPOS>MOLECULE
3R136
137   139    1
SMALL
USER_CHARGES


@<TRIPOS>ATOM
      1 CA         26.7061   22.4940   -5.9372 C.3       0 UNK        -0.1979 
      2 C          26.7072   22.8614   -4.4611 C.2       0 UNK         0.4864 
      3 O          25.6390   23.0400   -3.8718 O.2       0 UNK        -0.5359 
      4 N          27.8952   22.9690   -3.8501 N.am      1 UNK        -0.4318 
      5 CA         28.0937   23.3008   -2.4353 C.3       1 UNK         0.0824 
      6 C6         29.4917   23.9333   -2.2002 C.3       12 UNK        -0.0944 
      7 S7         29.5772   24.9022   -0.6551 S.3       12 UNK        -0.2672 
      8 C8         30.8231   23.9631    0.2769 C.3       12 UNK         0.0333 
      9 C9         31.0570   24.5597    1.6556 C.ar      12 UNK        -0.0807 
     10 C10        32.0676   25.5056    1.8518 C.ar      12 UNK        -0.0894 
     11 C11        32.3200   26.0199    3.1271 C.ar      12 UNK        -0.0804 
     12 C12        31.5455   25.5901    4.2089 C.ar      12 UNK        -0.0824 
     13 C13        30.5185   24.6603    4.0211 C.ar      12 UNK        -0.0762 
     14 C14        30.2828   24.1434    2.7428 C.ar      12 UNK        -0.0782 
     15 C15        29.6686   24.2079    5.1998 C.3       12 UNK         0.0230 
     16 S16        27.9482   24.7874    5.0628 S.3       12 UNK        -0.2608 
     17 C17        28.1337   26.5999    5.2157 C.3       12 UNK        -0.0989 
     18 CA         28.2253   27.3264    3.8460 C.3       5 UNK         0.0716 
     19 N          27.1350   26.9379    2.9428 N.am      5 UNK        -0.4135 
     20 C          27.1244   27.0463    1.6086 C.2       4 UNK         0.5031 
     21 O          28.0073   27.6169    0.9647 O.2       4 UNK        -0.5229 
     22 CA         25.9368   26.3890    0.8825 C.3       4 UNK         0.0329 
     23 CB         25.9844   26.5942   -0.6435 C.3       4 UNK        -0.2001 
     24 N          25.8793   24.9535    1.1735 N.am      4 UNK        -0.4303 
     25 C          25.3128   24.4139    2.2630 C.2       3 UNK         0.5044 
     26 O          24.7790   25.0921    3.1427 O.2       3 UNK        -0.5152 
     27 CA         25.3498   22.8808    2.3959 C.3       3 UNK         0.0319 
     28 CB         24.1389   22.3256    3.1736 C.3       3 UNK        -0.2001 
     29 N          25.4462   22.2369    1.0839 N.am      3 UNK        -0.4354 
     30 C          25.9821   21.0322    0.8486 C.2       2 UNK         0.4964 
     31 O          26.4397   20.2951    1.7222 O.2       2 UNK        -0.5047 
     32 CA         26.0345   20.5911   -0.6233 C.3       2 UNK         0.0288 
     33 CB         24.6527   20.1240   -1.1107 C.3       2 UNK        -0.2113 
     34 N          26.5279   21.6630   -1.4914 N.am      2 UNK        -0.4145 
     35 C          27.8016   22.0772   -1.5359 C.2       1 UNK         0.5006 
     36 O          28.7142   21.5187   -0.9249 O.2       1 UNK        -0.5103 
     37 C          28.3621   28.8599    3.9969 C.2       5 UNK         0.5055 
     38 O          28.3582   29.3815    5.1127 O.2       5 UNK        -0.5220 
     39 N          28.4871   29.5526    2.8631 N.am      6 UNK        -0.4450 
     40 CA         28.7107   30.9898    2.7315 C.3       6 UNK         0.0367 
     41 CB         27.3685   31.7424    2.8205 C.3       6 UNK        -0.1929 
     42 C          29.4776   31.2911    1.4312 C.2       6 UNK         0.5070 
     43 O          29.3504   32.3892    0.8885 O.2       6 UNK        -0.5237 
     44 N          30.2521   30.3113    0.9381 N.am      7 UNK        -0.4739 
     45 CA         31.0504   30.4056   -0.2899 C.3       7 UNK         0.0276 
     46 CB         31.5252   28.9968   -0.6840 C.3       7 UNK        -0.1927 
     47 C          32.2450   31.3712   -0.1697 C.2       7 UNK         0.5013 
     48 O          32.7100   31.8933   -1.1838 O.2       7 UNK        -0.5193 
     49 N          32.7023   31.5986    1.0639 N.am      8 UNK        -0.4253 
     50 CA         33.7280   32.5504    1.4640 C.3       8 UNK         0.0242 
     51 CB         35.1186   31.9059    1.3163 C.3       8 UNK        -0.2000 
     52 C          33.4480   32.9311    2.9219 C.2       8 UNK         0.4948 
     53 O          32.7085   32.2182    3.6067 O.2       8 UNK        -0.5275 
     54 N          34.0804   34.0120    3.3987 N.am      9 UNK        -0.4246 
     55 CA         33.9857   34.4820    4.7893 C.3       9 UNK         0.0261 
     56 CB         34.7530   35.8059    4.9361 C.3       9 UNK        -0.1959 
     57 C          34.4784   33.4544    5.8278 C.2       9 UNK         0.5033 
     58 O          33.9795   33.4394    6.9538 O.2       9 UNK        -0.5390 
     59 N          35.4154   32.5894    5.4149 N.am      10 UNK        -0.4215 
     60 CA         35.9322   31.4594    6.1878 C.3       10 UNK         0.0240 
     61 CB         37.1628   30.8859    5.4653 C.3       10 UNK        -0.1982 
     62 C          34.8992   30.3452    6.4481 C.2       10 UNK         0.4970 
     63 O          35.1150   29.5496    7.3634 O.2       10 UNK        -0.4916 
     64 N          33.8158   30.2884    5.6587 N.am      11 UNK        -0.4279 
     65 CA         32.7346   29.3028    5.8174 C.3       11 UNK         0.1003 
     66 C          31.7868   29.5800    7.0199 C.2       11 UNK         0.5709 
     67 N          31.8203   30.7550    7.6400 N.am      11 UNK        -0.7358 
     68 O          31.0233   28.7006    7.4105 O.2       11 UNK        -0.4999 
     69 C69        31.9234   29.0975    4.5104 C.3       12 UNK        -0.0954 
     70 S70        32.9447   28.7302    3.0440 S.3       12 UNK        -0.2268 
     71 C71        33.4559   27.0094    3.3393 C.3       12 UNK         0.0203 
     72 H72        26.2130   23.2739   -6.5168 H         1 UNK         0.0888 
     73 H73        27.7160   22.3688   -6.3272 H         1 UNK         0.0888 
     74 H74        26.1647   21.5609   -6.0907 H         1 UNK         0.0888 
     75 H75        28.7371   22.7799   -4.3757 H         1 UNK         0.3017 
     76 H76        27.3526   24.0608   -2.1785 H         1 UNK         0.0873 
     77 H77        29.7187   24.6312   -3.0078 H         1 UNK         0.0745 
     78 H78        30.2829   23.1818   -2.2330 H         1 UNK         0.0745 
     79 H79        30.5043   22.9251    0.3751 H         1 UNK         0.0705 
     80 H80        31.7568   23.9456   -0.2874 H         1 UNK         0.0705 
     81 H81        32.6683   25.8315    1.0134 H         1 UNK         0.1334 
     82 H82        31.7417   25.9824    5.1975 H         1 UNK         0.1417 
     83 H83        29.4940   23.4180    2.5951 H         1 UNK         0.1562 
     84 H84        30.0909   24.5513    6.1456 H         1 UNK         0.0748 
     85 H85        29.6702   23.1179    5.2429 H         1 UNK         0.0748 
     86 H86        29.0132   26.8197    5.8249 H         1 UNK         0.0940 
     87 H87        27.2774   26.9706    5.7825 H         1 UNK         0.0940 
     88 H88        29.1527   27.0005    3.3719 H         1 UNK         0.0703 
     89 H89        26.3622   26.4416    3.3729 H         1 UNK         0.3081 
     90 H90        25.0263   26.8683    1.2490 H         1 UNK         0.0719 
     91 H91        25.1311   26.1280   -1.1361 H         1 UNK         0.0809 
     92 H92        26.8932   26.1823   -1.0814 H         1 UNK         0.0809 
     93 H93        25.9607   27.6560   -0.8923 H         1 UNK         0.0809 
     94 H94        26.3918   24.3509    0.5480 H         1 UNK         0.2990 
     95 H95        26.2552   22.6536    2.9631 H         1 UNK         0.0690 
     96 H96        24.2068   21.2452    3.3008 H         1 UNK         0.0788 
     97 H97        23.2008   22.5449    2.6625 H         1 UNK         0.0788 
     98 H98        24.0786   22.7602    4.1723 H         1 UNK         0.0788 
     99 H99        25.0549   22.7509    0.3068 H         1 UNK         0.2993 
    100 H100       26.7232   19.7459   -0.6932 H         1 UNK         0.0949 
    101 H101       24.7033   19.7392   -2.1295 H         1 UNK         0.0767 
    102 H102       24.2686   19.3206   -0.4804 H         1 UNK         0.0767 
    103 H103       23.9192   20.9311   -1.0947 H         1 UNK         0.0767 
    104 H104       25.8623   22.1210   -2.1075 H         1 UNK         0.3013 
    105 H105       28.4219   29.0239    1.9918 H         1 UNK         0.3121 
    106 H106       29.3512   31.3241    3.5505 H         1 UNK         0.0774 
    107 H107       27.5178   32.8215    2.7678 H         1 UNK         0.0815 
    108 H108       26.6991   31.4629    2.0063 H         1 UNK         0.0815 
    109 H109       26.8579   31.5358    3.7611 H         1 UNK         0.0815 
    110 H110       30.3221   29.4433    1.4499 H         1 UNK         0.2987 
    111 H111       30.4039   30.7853   -1.0840 H         1 UNK         0.0949 
    112 H112       32.1815   28.5640    0.0717 H         1 UNK         0.0806 
    113 H113       30.6834   28.3173   -0.8236 H         1 UNK         0.0806 
    114 H114       32.0810   29.0210   -1.6223 H         1 UNK         0.0806 
    115 H115       32.2390   31.1529    1.8475 H         1 UNK         0.3010 
    116 H116       33.6568   33.4469    0.8446 H         1 UNK         0.0829 
    117 H117       35.3087   31.6079    0.2850 H         1 UNK         0.0813 
    118 H118       35.9103   32.5997    1.6008 H         1 UNK         0.0813 
    119 H119       35.2177   31.0174    1.9419 H         1 UNK         0.0813 
    120 H120       34.6704   34.5477    2.7773 H         1 UNK         0.3038 
    121 H121       32.9311   34.6723    5.0002 H         1 UNK         0.0769 
    122 H122       34.6786   36.1886    5.9551 H         1 UNK         0.0811 
    123 H123       34.3513   36.5738    4.2748 H         1 UNK         0.0811 
    124 H124       35.8134   35.6869    4.7098 H         1 UNK         0.0811 
    125 H125       35.7651   32.6902    4.4737 H         1 UNK         0.3204 
    126 H126       36.2504   31.8389    7.1611 H         1 UNK         0.0748 
    127 H127       37.5999   30.0619    6.0313 H         1 UNK         0.0771 
    128 H128       36.9078   30.5020    4.4764 H         1 UNK         0.0771 
    129 H129       37.9408   31.6400    5.3443 H         1 UNK         0.0771 
    130 H130       33.6692   30.9858    4.9377 H         1 UNK         0.2980 
    131 H131       33.2075   28.3470    6.0475 H         1 UNK         0.0545 
    132 H132       31.2060   30.9160    8.4220 H         1 UNK         0.3459 
    133 H133       32.4533   31.4803    7.3361 H         1 UNK         0.3459 
    134 H134       31.3452   29.9954    4.2888 H         1 UNK         0.0616 
    135 H135       31.1935   28.2984    4.6341 H         1 UNK         0.0616 
    136 H136       34.2736   26.7741    2.6566 H         1 UNK         0.0634 
    137 H137       33.8702   26.9104    4.3429 H         1 UNK         0.0634 
@<TRIPOS>BOND
     1    1    2 1    
     2    1   72 1    
     3    1   73 1    
     4    1   74 1    
     5    2    3 2    
     6    2    4 am   BACKBONE|DICT|INTERRES
     7    4    5 1    
     8    4   75 1    
     9    5    6 1    
    10    5   35 1    
    11    5   76 1    
    12    6    7 1    
    13    6   77 1    
    14    6   78 1    
    15    7    8 1    
    16    8    9 1    
    17    8   79 1    
    18    8   80 1    
    19    9   10 ar   
    20    9   14 ar   
    21   10   11 ar   
    22   10   81 1    
    23   11   12 ar   
    24   11   71 1    
    25   12   13 ar   
    26   12   82 1    
    27   13   14 ar   
    28   13   15 1    
    29   14   83 1    
    30   15   16 1    
    31   15   84 1    
    32   15   85 1    
    33   16   17 1    
    34   17   18 1    
    35   17   86 1    
    36   17   87 1    
    37   18   19 1    
    38   18   37 1    
    39   18   88 1    
    40   19   20 am   BACKBONE|DICT|INTERRES
    41   19   89 1    
    42   20   21 2    
    43   20   22 1    
    44   22   23 1    
    45   22   24 1    
    46   22   90 1    
    47   23   91 1    
    48   23   92 1    
    49   23   93 1    
    50   24   25 am   BACKBONE|DICT|INTERRES
    51   24   94 1    
    52   25   26 2    
    53   25   27 1    
    54   27   28 1    
    55   27   29 1    
    56   27   95 1    
    57   28   96 1    
    58   28   97 1    
    59   28   98 1    
    60   29   30 am   BACKBONE|DICT|INTERRES
    61   29   99 1    
    62   30   31 2    
    63   30   32 1    
    64   32   33 1    
    65   32   34 1    
    66   32  100 1    
    67   33  101 1    
    68   33  102 1    
    69   33  103 1    
    70   34   35 am   BACKBONE|DICT|INTERRES
    71   34  104 1    
    72   35   36 2    
    73   37   38 2    
    74   37   39 am   BACKBONE|DICT|INTERRES
    75   39   40 1    
    76   39  105 1    
    77   40   41 1    
    78   40   42 1    
    79   40  106 1    
    80   41  107 1    
    81   41  108 1    
    82   41  109 1    
    83   42   43 2    
    84   42   44 am   BACKBONE|DICT|INTERRES
    85   44   45 1    
    86   44  110 1    
    87   45   46 1    
    88   45   47 1    
    89   45  111 1    
    90   46  112 1    
    91   46  113 1    
    92   46  114 1    
    93   47   48 2    
    94   47   49 am   BACKBONE|DICT|INTERRES
    95   49   50 1    
    96   49  115 1    
    97   50   51 1    
    98   50   52 1    
    99   50  116 1    
   100   51  117 1    
   101   51  118 1    
   102   51  119 1    
   103   52   53 2    
   104   52   54 am   BACKBONE|DICT|INTERRES
   105   54   55 1    
   106   54  120 1    
   107   55   56 1    
   108   55   57 1    
   109   55  121 1    
   110   56  122 1    
   111   56  123 1    
   112   56  124 1    
   113   57   58 2    
   114   57   59 am   BACKBONE|DICT|INTERRES
   115   59   60 1    
   116   59  125 1    
   117   60   61 1    
   118   60   62 1    
   119   60  126 1    
   120   61  127 1    
   121   61  128 1    
   122   61  129 1    
   123   62   63 2    
   124   62   64 am   BACKBONE|DICT|INTERRES
   125   64   65 1    
   126   64  130 1    
   127   65   66 1    
   128   65   69 1    
   129   65  131 1    
   130   66   67 am   BACKBONE|DICT|INTERRES
   131   66   68 2    
   132   67  132 1    
   133   67  133 1    
   134   69   70 1    
   135   69  134 1    
   136   69  135 1    
   137   70   71 1    
   138   71  136 1    
   139   71  137 1    
@<TRIPOS>SUBSTRUCTURE
     1 UNK         1 GROUP             0       ****    0 ROOT    
