@<TRIPOS>MOLECULE
3R136
137   139    1
SMALL
USER_CHARGES


@<TRIPOS>ATOM
      1 CA         30.0533   29.6232   -4.0718 C.3       0 UNK        -0.1979 
      2 C          29.2733   29.0980   -2.8755 C.2       0 UNK         0.4864 
      3 O          28.1756   29.5837   -2.6043 O.2       0 UNK        -0.5359 
      4 N          29.8345   28.1098   -2.1627 N.am      1 UNK        -0.4318 
      5 CA         29.2230   27.4399   -1.0069 C.3       1 UNK         0.0824 
      6 C6         30.2081   26.4592   -0.3303 C.3       12 UNK        -0.0944 
      7 S7         31.4856   27.3154    0.6442 S.3       12 UNK        -0.2672 
      8 C8         32.6065   25.9235    1.0039 C.3       12 UNK         0.0333 
      9 C9         32.2031   25.1597    2.2596 C.ar      12 UNK        -0.0807 
     10 C10        32.8681   25.3999    3.4675 C.ar      12 UNK        -0.0894 
     11 C11        32.5525   24.6625    4.6121 C.ar      12 UNK        -0.0804 
     12 C12        31.5388   23.7032    4.5520 C.ar      12 UNK        -0.0824 
     13 C13        30.8622   23.4524    3.3542 C.ar      12 UNK        -0.0762 
     14 C14        31.2104   24.1737    2.2070 C.ar      12 UNK        -0.0782 
     15 C15        29.7884   22.3684    3.3079 C.3       12 UNK         0.0230 
     16 S16        28.1629   22.9537    2.7175 S.3       12 UNK        -0.2608 
     17 C17        27.8614   24.4315    3.7457 C.3       12 UNK        -0.0989 
     18 CA         27.6848   25.6789    2.8378 C.3       5 UNK         0.0716 
     19 N          26.4152   25.7190    2.1014 N.am      5 UNK        -0.4135 
     20 C          25.1691   25.6772    2.5955 C.2       4 UNK         0.5031 
     21 O          24.8832   25.5278    3.7846 O.2       4 UNK        -0.5229 
     22 CA         24.0319   25.8195    1.5716 C.3       4 UNK         0.0329 
     23 CB         23.8259   27.2951    1.1888 C.3       4 UNK        -0.2001 
     24 N          24.2550   25.0263    0.3612 N.am      4 UNK        -0.4303 
     25 C          24.1715   23.6882    0.2948 C.2       3 UNK         0.5044 
     26 O          23.8972   22.9738    1.2596 O.2       3 UNK        -0.5152 
     27 CA         24.3924   23.0274   -1.0809 C.3       3 UNK         0.0319 
     28 CB         23.0599   22.5086   -1.6476 C.3       3 UNK        -0.2001 
     29 N          24.9967   23.9389   -2.0558 N.am      3 UNK        -0.4354 
     30 C          26.3100   24.1792   -2.1555 C.2       2 UNK         0.4964 
     31 O          27.1667   23.5535   -1.5276 O.2       2 UNK        -0.5047 
     32 CA         26.7450   25.3190   -3.1027 C.3       2 UNK         0.0288 
     33 CB         25.5960   26.2694   -3.5147 C.3       2 UNK        -0.2113 
     34 N          27.8613   26.0987   -2.5536 N.am      2 UNK        -0.4145 
     35 C          27.9113   26.7071   -1.3565 C.2       1 UNK         0.5006 
     36 O          26.9929   26.7009   -0.5323 O.2       1 UNK        -0.5103 
     37 C          27.9838   27.0003    3.5721 C.2       5 UNK         0.5055 
     38 O          27.0708   27.7309    3.9605 O.2       5 UNK        -0.5220 
     39 N          29.2869   27.2932    3.7144 N.am      6 UNK        -0.4450 
     40 CA         29.8784   28.4701    4.3720 C.3       6 UNK         0.0367 
     41 CB         29.4746   28.5165    5.8617 C.3       6 UNK        -0.1929 
     42 C          29.6051   29.8234    3.6801 C.2       6 UNK         0.5070 
     43 O          29.9886   30.8597    4.2223 O.2       6 UNK        -0.5237 
     44 N          28.9554   29.8167    2.5084 N.am      7 UNK        -0.4739 
     45 CA         28.5080   31.0257    1.8106 C.3       7 UNK         0.0276 
     46 CB         27.3488   30.6687    0.8651 C.3       7 UNK        -0.1927 
     47 C          29.6249   31.7703    1.0576 C.2       7 UNK         0.5013 
     48 O          29.4325   32.9418    0.7284 O.2       7 UNK        -0.5193 
     49 N          30.7566   31.1033    0.7919 N.am      8 UNK        -0.4253 
     50 CA         31.8941   31.6687    0.0619 C.3       8 UNK         0.0242 
     51 CB         31.6867   31.4875   -1.4543 C.3       8 UNK        -0.2000 
     52 C          33.2279   31.0828    0.5507 C.2       8 UNK         0.4948 
     53 O          34.1242   30.8489   -0.2625 O.2       8 UNK        -0.5275 
     54 N          33.3509   30.8545    1.8631 N.am      9 UNK        -0.4246 
     55 CA         34.5565   30.3338    2.5020 C.3       9 UNK         0.0261 
     56 CB         34.5970   28.8016    2.3693 C.3       9 UNK        -0.1959 
     57 C          34.5599   30.7424    3.9749 C.2       9 UNK         0.5033 
     58 O          33.4886   30.9192    4.5605 O.2       9 UNK        -0.5390 
     59 N          35.7565   30.8197    4.5706 N.am      10 UNK        -0.4215 
     60 CA         35.9786   31.0837    5.9968 C.3       10 UNK         0.0240 
     61 CB         37.3892   31.6747    6.1836 C.3       10 UNK        -0.1982 
     62 C          35.7429   29.8207    6.8518 C.2       10 UNK         0.4970 
     63 O          36.6310   29.3950    7.5926 O.2       10 UNK        -0.4916 
     64 N          34.5554   29.2273    6.6993 N.am      11 UNK        -0.4279 
     65 CA         34.0885   28.0360    7.4129 C.3       11 UNK         0.1003 
     66 C          33.8633   28.3175    8.9253 C.2       11 UNK         0.5709 
     67 N          34.2598   27.4018    9.7987 N.am      11 UNK        -0.7358 
     68 O          33.3081   29.3463    9.3078 O.2       11 UNK        -0.4999 
     69 C69        32.8190   27.4814    6.7180 C.3       12 UNK        -0.0954 
     70 S70        32.4375   25.7593    7.1707 S.3       12 UNK        -0.2268 
     71 C71        33.3517   24.8389    5.8964 C.3       12 UNK         0.0203 
     72 H72        29.5365   29.3673   -4.9963 H         1 UNK         0.0888 
     73 H73        30.1378   30.7083   -4.0198 H         1 UNK         0.0888 
     74 H74        31.0598   29.2077   -4.1175 H         1 UNK         0.0888 
     75 H75        30.7517   27.7752   -2.4220 H         1 UNK         0.3017 
     76 H76        28.9610   28.2118   -0.2834 H         1 UNK         0.0873 
     77 H77        29.6892   25.7763    0.3371 H         1 UNK         0.0745 
     78 H78        30.6869   25.8261   -1.0798 H         1 UNK         0.0745 
     79 H79        33.6187   26.3128    1.1157 H         1 UNK         0.0705 
     80 H80        32.6488   25.2443    0.1513 H         1 UNK         0.0705 
     81 H81        33.6613   26.1325    3.5094 H         1 UNK         0.1334 
     82 H82        31.2972   23.1326    5.4387 H         1 UNK         0.1417 
     83 H83        30.7119   23.9554    1.2729 H         1 UNK         0.1562 
     84 H84        29.6503   21.9208    4.2934 H         1 UNK         0.0748 
     85 H85        30.1284   21.5638    2.6546 H         1 UNK         0.0748 
     86 H86        28.6902   24.5629    4.4426 H         1 UNK         0.0940 
     87 H87        26.9892   24.2571    4.3753 H         1 UNK         0.0940 
     88 H88        28.4393   25.6168    2.0589 H         1 UNK         0.0703 
     89 H89        26.5108   25.9078    1.1065 H         1 UNK         0.3081 
     90 H90        23.1136   25.4633    2.0438 H         1 UNK         0.0719 
     91 H91        24.6969   27.7094    0.6791 H         1 UNK         0.0809 
     92 H92        22.9633   27.4186    0.5338 H         1 UNK         0.0809 
     93 H93        23.6486   27.9053    2.0756 H         1 UNK         0.0809 
     94 H94        24.5220   25.5324   -0.4701 H         1 UNK         0.2990 
     95 H95        25.0531   22.1707   -0.9302 H         1 UNK         0.0690 
     96 H96        23.2065   21.9928   -2.5968 H         1 UNK         0.0788 
     97 H97        22.3465   23.3175   -1.8103 H         1 UNK         0.0788 
     98 H98        22.5950   21.7973   -0.9634 H         1 UNK         0.0788 
     99 H99        24.3629   24.4814   -2.6255 H         1 UNK         0.2993 
    100 H100       27.1198   24.8341   -4.0055 H         1 UNK         0.0949 
    101 H101       25.1252   26.7411   -2.6510 H         1 UNK         0.0767 
    102 H102       25.9651   27.0681   -4.1588 H         1 UNK         0.0767 
    103 H103       24.8226   25.7464   -4.0785 H         1 UNK         0.0767 
    104 H104       28.6874   26.1429   -3.1327 H         1 UNK         0.3013 
    105 H105       29.9630   26.6390    3.3415 H         1 UNK         0.3121 
    106 H106       30.9588   28.3265    4.3240 H         1 UNK         0.0774 
    107 H107       30.0207   29.2971    6.3924 H         1 UNK         0.0815 
    108 H108       28.4137   28.7321    5.9895 H         1 UNK         0.0815 
    109 H109       29.6852   27.5708    6.3611 H         1 UNK         0.0815 
    110 H110       28.6509   28.9296    2.1380 H         1 UNK         0.2987 
    111 H111       28.1176   31.7199    2.5587 H         1 UNK         0.0949 
    112 H112       26.9240   31.5684    0.4177 H         1 UNK         0.0806 
    113 H113       27.6690   30.0282    0.0454 H         1 UNK         0.0806 
    114 H114       26.5422   30.1611    1.3948 H         1 UNK         0.0806 
    115 H115       30.8461   30.1448    1.1013 H         1 UNK         0.3010 
    116 H116       31.9528   32.7395    0.2691 H         1 UNK         0.0829 
    117 H117       30.7315   31.8988   -1.7807 H         1 UNK         0.0813 
    118 H118       32.4671   31.9961   -2.0215 H         1 UNK         0.0813 
    119 H119       31.7170   30.4338   -1.7305 H         1 UNK         0.0813 
    120 H120       32.6108   31.1146    2.5051 H         1 UNK         0.3038 
    121 H121       35.4371   30.7685    2.0235 H         1 UNK         0.0769 
    122 H122       33.6990   28.3487    2.7898 H         1 UNK         0.0811 
    123 H123       35.4572   28.3768    2.8881 H         1 UNK         0.0811 
    124 H124       34.6676   28.4990    1.3246 H         1 UNK         0.0811 
    125 H125       36.5810   30.6151    4.0234 H         1 UNK         0.3204 
    126 H126       35.2594   31.8344    6.3318 H         1 UNK         0.0748 
    127 H127       37.5729   31.9259    7.2292 H         1 UNK         0.0771 
    128 H128       38.1664   30.9745    5.8744 H         1 UNK         0.0771 
    129 H129       37.5145   32.5915    5.6070 H         1 UNK         0.0771 
    130 H130       33.8881   29.6773    6.0815 H         1 UNK         0.2980 
    131 H131       34.8804   27.2902    7.3184 H         1 UNK         0.0545 
    132 H132       34.1109   27.5645   10.7821 H         1 UNK         0.3459 
    133 H133       34.6943   26.5455    9.4919 H         1 UNK         0.3459 
    134 H134       32.9240   27.5294    5.6331 H         1 UNK         0.0616 
    135 H135       31.9598   28.1033    6.9641 H         1 UNK         0.0616 
    136 H136       33.6006   23.8548    6.2960 H         1 UNK         0.0634 
    137 H137       34.3052   25.3311    5.6985 H         1 UNK         0.0634 
@<TRIPOS>BOND
     1    1    2 1    
     2    1   72 1    
     3    1   73 1    
     4    1   74 1    
     5    2    3 2    
     6    2    4 am   BACKBONE|DICT|INTERRES
     7    4    5 1    
     8    4   75 1    
     9    5    6 1    
    10    5   35 1    
    11    5   76 1    
    12    6    7 1    
    13    6   77 1    
    14    6   78 1    
    15    7    8 1    
    16    8    9 1    
    17    8   79 1    
    18    8   80 1    
    19    9   10 ar   
    20    9   14 ar   
    21   10   11 ar   
    22   10   81 1    
    23   11   12 ar   
    24   11   71 1    
    25   12   13 ar   
    26   12   82 1    
    27   13   14 ar   
    28   13   15 1    
    29   14   83 1    
    30   15   16 1    
    31   15   84 1    
    32   15   85 1    
    33   16   17 1    
    34   17   18 1    
    35   17   86 1    
    36   17   87 1    
    37   18   19 1    
    38   18   37 1    
    39   18   88 1    
    40   19   20 am   BACKBONE|DICT|INTERRES
    41   19   89 1    
    42   20   21 2    
    43   20   22 1    
    44   22   23 1    
    45   22   24 1    
    46   22   90 1    
    47   23   91 1    
    48   23   92 1    
    49   23   93 1    
    50   24   25 am   BACKBONE|DICT|INTERRES
    51   24   94 1    
    52   25   26 2    
    53   25   27 1    
    54   27   28 1    
    55   27   29 1    
    56   27   95 1    
    57   28   96 1    
    58   28   97 1    
    59   28   98 1    
    60   29   30 am   BACKBONE|DICT|INTERRES
    61   29   99 1    
    62   30   31 2    
    63   30   32 1    
    64   32   33 1    
    65   32   34 1    
    66   32  100 1    
    67   33  101 1    
    68   33  102 1    
    69   33  103 1    
    70   34   35 am   BACKBONE|DICT|INTERRES
    71   34  104 1    
    72   35   36 2    
    73   37   38 2    
    74   37   39 am   BACKBONE|DICT|INTERRES
    75   39   40 1    
    76   39  105 1    
    77   40   41 1    
    78   40   42 1    
    79   40  106 1    
    80   41  107 1    
    81   41  108 1    
    82   41  109 1    
    83   42   43 2    
    84   42   44 am   BACKBONE|DICT|INTERRES
    85   44   45 1    
    86   44  110 1    
    87   45   46 1    
    88   45   47 1    
    89   45  111 1    
    90   46  112 1    
    91   46  113 1    
    92   46  114 1    
    93   47   48 2    
    94   47   49 am   BACKBONE|DICT|INTERRES
    95   49   50 1    
    96   49  115 1    
    97   50   51 1    
    98   50   52 1    
    99   50  116 1    
   100   51  117 1    
   101   51  118 1    
   102   51  119 1    
   103   52   53 2    
   104   52   54 am   BACKBONE|DICT|INTERRES
   105   54   55 1    
   106   54  120 1    
   107   55   56 1    
   108   55   57 1    
   109   55  121 1    
   110   56  122 1    
   111   56  123 1    
   112   56  124 1    
   113   57   58 2    
   114   57   59 am   BACKBONE|DICT|INTERRES
   115   59   60 1    
   116   59  125 1    
   117   60   61 1    
   118   60   62 1    
   119   60  126 1    
   120   61  127 1    
   121   61  128 1    
   122   61  129 1    
   123   62   63 2    
   124   62   64 am   BACKBONE|DICT|INTERRES
   125   64   65 1    
   126   64  130 1    
   127   65   66 1    
   128   65   69 1    
   129   65  131 1    
   130   66   67 am   BACKBONE|DICT|INTERRES
   131   66   68 2    
   132   67  132 1    
   133   67  133 1    
   134   69   70 1    
   135   69  134 1    
   136   69  135 1    
   137   70   71 1    
   138   71  136 1    
   139   71  137 1    
@<TRIPOS>SUBSTRUCTURE
     1 UNK         1 GROUP             0       ****    0 ROOT    
