@<TRIPOS>MOLECULE
3R136
137   139    1
SMALL
USER_CHARGES


@<TRIPOS>ATOM
      1 CA         27.6108   21.0639    4.4152 C.3       0 UNK        -0.1979 
      2 C          27.9921   22.2005    3.4784 C.2       0 UNK         0.4864 
      3 O          28.6901   23.1233    3.8976 O.2       0 UNK        -0.5359 
      4 N          27.5283   22.1383    2.2205 N.am      1 UNK        -0.4318 
      5 CA         27.8025   23.0929    1.1333 C.3       1 UNK         0.0824 
      6 C6         29.2985   23.1443    0.7192 C.3       12 UNK        -0.0944 
      7 S7         29.9368   21.5347    0.1403 S.3       12 UNK        -0.2672 
      8 C8         31.4968   21.3838    1.0814 C.3       12 UNK         0.0333 
      9 C9         32.3923   22.6188    0.9928 C.ar      12 UNK        -0.0807 
     10 C10        33.0066   23.1107    2.1495 C.ar      12 UNK        -0.0894 
     11 C11        33.7862   24.2701    2.1035 C.ar      12 UNK        -0.0804 
     12 C12        33.9441   24.9465    0.8913 C.ar      12 UNK        -0.0824 
     13 C13        33.3300   24.4706   -0.2708 C.ar      12 UNK        -0.0762 
     14 C14        32.5825   23.2910   -0.2207 C.ar      12 UNK        -0.0782 
     15 C15        33.4183   25.2677   -1.5650 C.3       12 UNK         0.0230 
     16 S16        31.8233   26.0472   -1.9946 S.3       12 UNK        -0.2608 
     17 C17        31.3765   26.8593   -0.4210 C.3       12 UNK        -0.0989 
     18 CA         30.1721   27.8312   -0.5224 C.3       5 UNK         0.0716 
     19 N          28.9587   27.1811   -1.0253 N.am      5 UNK        -0.4135 
     20 C          28.4393   27.3794   -2.2428 C.2       4 UNK         0.5031 
     21 O          28.8386   28.2321   -3.0374 O.2       4 UNK        -0.5229 
     22 CA         27.2982   26.4462   -2.6664 C.3       4 UNK         0.0329 
     23 CB         27.8257   25.0204   -2.9068 C.3       4 UNK        -0.2001 
     24 N          26.2188   26.4030   -1.6800 N.am      4 UNK        -0.4303 
     25 C          25.0602   27.0671   -1.7930 C.2       3 UNK         0.5044 
     26 O          24.8166   27.8701   -2.6946 O.2       3 UNK        -0.5152 
     27 CA         23.9603   26.7590   -0.7595 C.3       3 UNK         0.0319 
     28 CB         22.8689   25.8788   -1.3917 C.3       3 UNK        -0.2001 
     29 N          24.4673   26.0893    0.4405 N.am      3 UNK        -0.4354 
     30 C          24.9882   26.7324    1.4929 C.2       2 UNK         0.4964 
     31 O          25.0574   27.9570    1.5796 O.2       2 UNK        -0.5047 
     32 CA         25.5364   25.8622    2.6364 C.3       2 UNK         0.0288 
     33 CB         24.4299   25.5524    3.6570 C.3       2 UNK        -0.2113 
     34 N          26.1634   24.6063    2.2032 N.am      2 UNK        -0.4145 
     35 C          27.2338   24.5071    1.3991 C.2       1 UNK         0.5006 
     36 O          27.7597   25.4832    0.8568 O.2       1 UNK        -0.5103 
     37 C          29.9095   28.4607    0.8530 C.2       5 UNK         0.5055 
     38 O          30.2223   29.6343    1.0550 O.2       5 UNK        -0.5220 
     39 N          29.3476   27.6776    1.7844 N.am      6 UNK        -0.4450 
     40 CA         29.2113   28.0202    3.2026 C.3       6 UNK         0.0367 
     41 CB         29.2681   26.7287    4.0403 C.3       6 UNK        -0.1929 
     42 C          27.9777   28.8933    3.5090 C.2       6 UNK         0.5070 
     43 O          27.3552   28.7337    4.5597 O.2       6 UNK        -0.5237 
     44 N          27.6571   29.8213    2.5981 N.am      7 UNK        -0.4739 
     45 CA         26.6511   30.8728    2.7859 C.3       7 UNK         0.0276 
     46 CB         26.2278   31.4095    1.4092 C.3       7 UNK        -0.1927 
     47 C          27.1738   32.0164    3.6777 C.2       7 UNK         0.5013 
     48 O          26.3785   32.7680    4.2425 O.2       7 UNK        -0.5193 
     49 N          28.5015   32.1080    3.7900 N.am      8 UNK        -0.4253 
     50 CA         29.2685   32.9516    4.6956 C.3       8 UNK         0.0242 
     51 CB         29.7340   34.2113    3.9430 C.3       8 UNK        -0.2000 
     52 C          30.4553   32.1097    5.1887 C.2       8 UNK         0.4948 
     53 O          30.6272   30.9719    4.7384 O.2       8 UNK        -0.5275 
     54 N          31.2859   32.6756    6.0734 N.am      9 UNK        -0.4246 
     55 CA         32.4664   32.0356    6.6760 C.3       9 UNK         0.0261 
     56 CB         32.8808   32.8375    7.9245 C.3       9 UNK        -0.1959 
     57 C          33.6505   31.8100    5.7032 C.2       9 UNK         0.5033 
     58 O          34.8074   31.9916    6.0884 O.2       9 UNK        -0.5390 
     59 N          33.3530   31.3923    4.4662 N.am      10 UNK        -0.4215 
     60 CA         34.3069   31.0956    3.3933 C.3       10 UNK         0.0240 
     61 CB         33.5309   30.8401    2.0904 C.3       10 UNK        -0.1982 
     62 C          35.2298   29.9063    3.7091 C.2       10 UNK         0.4970 
     63 O          36.3609   29.8736    3.2233 O.2       10 UNK        -0.4916 
     64 N          34.7358   28.9681    4.5255 N.am      11 UNK        -0.4279 
     65 CA         35.4872   27.8175    5.0448 C.3       11 UNK         0.1003 
     66 C          36.4866   28.1710    6.1870 C.2       11 UNK         0.5709 
     67 N          36.5208   29.3964    6.7013 N.am      11 UNK        -0.7358 
     68 O          37.2580   27.3134    6.6105 O.2       11 UNK        -0.4999 
     69 C69        34.5400   26.6602    5.4618 C.3       12 UNK        -0.0954 
     70 S70        33.4365   26.1251    4.1108 S.3       12 UNK        -0.2268 
     71 C71        34.4423   24.8082    3.3643 C.3       12 UNK         0.0203 
     72 H72        26.9878   20.3183    3.9217 H         1 UNK         0.0888 
     73 H73        28.5078   20.5661    4.7827 H         1 UNK         0.0888 
     74 H74        27.0613   21.4525    5.2722 H         1 UNK         0.0888 
     75 H75        26.9642   21.3432    1.9528 H         1 UNK         0.3017 
     76 H76        27.2435   22.7271    0.2707 H         1 UNK         0.0873 
     77 H77        29.9022   23.5131    1.5498 H         1 UNK         0.0745 
     78 H78        29.4602   23.8490   -0.0979 H         1 UNK         0.0745 
     79 H79        31.2423   21.1721    2.1213 H         1 UNK         0.0705 
     80 H80        32.0496   20.5185    0.7139 H         1 UNK         0.0705 
     81 H81        32.8648   22.6011    3.0930 H         1 UNK         0.1334 
     82 H82        34.5210   25.8610    0.8624 H         1 UNK         0.1417 
     83 H83        32.1005   22.9301   -1.1191 H         1 UNK         0.1562 
     84 H84        33.7258   24.6101   -2.3793 H         1 UNK         0.0748 
     85 H85        34.1827   26.0429   -1.4908 H         1 UNK         0.0748 
     86 H86        32.2575   27.3905   -0.0539 H         1 UNK         0.0940 
     87 H87        31.1674   26.0743    0.3091 H         1 UNK         0.0940 
     88 H88        30.4593   28.6483   -1.1877 H         1 UNK         0.0703 
     89 H89        28.5273   26.4921   -0.4147 H         1 UNK         0.3081 
     90 H90        26.9141   26.8127   -3.6211 H         1 UNK         0.0719 
     91 H91        28.1937   24.5586   -1.9910 H         1 UNK         0.0809 
     92 H92        27.0473   24.3758   -3.3154 H         1 UNK         0.0809 
     93 H93        28.6500   25.0247   -3.6216 H         1 UNK         0.0809 
     94 H94        26.3635   25.8242   -0.8651 H         1 UNK         0.2990 
     95 H95        23.5030   27.7096   -0.4758 H         1 UNK         0.0690 
     96 H96        22.0513   25.6982   -0.6936 H         1 UNK         0.0788 
     97 H97        23.2613   24.9117   -1.7087 H         1 UNK         0.0788 
     98 H98        22.4396   26.3601   -2.2717 H         1 UNK         0.0788 
     99 H99        24.4237   25.0806    0.4594 H         1 UNK         0.2993 
    100 H100       26.2990   26.4547    3.1415 H         1 UNK         0.0949 
    101 H101       24.8295   25.0353    4.5298 H         1 UNK         0.0767 
    102 H102       23.9616   26.4707    4.0147 H         1 UNK         0.0767 
    103 H103       23.6437   24.9307    3.2267 H         1 UNK         0.0767 
    104 H104       25.7947   23.7562    2.6040 H         1 UNK         0.3013 
    105 H105       29.0002   26.7621    1.5169 H         1 UNK         0.3121 
    106 H106       30.0789   28.6174    3.4915 H         1 UNK         0.0774 
    107 H107       29.2330   26.9494    5.1078 H         1 UNK         0.0815 
    108 H108       28.4418   26.0554    3.8184 H         1 UNK         0.0815 
    109 H109       30.1941   26.1822    3.8594 H         1 UNK         0.0815 
    110 H110       28.2474   29.8896    1.7776 H         1 UNK         0.2987 
    111 H111       25.7753   30.4392    3.2740 H         1 UNK         0.0949 
    112 H112       27.0667   31.8535    0.8719 H         1 UNK         0.0806 
    113 H113       25.8116   30.6160    0.7877 H         1 UNK         0.0806 
    114 H114       25.4598   32.1776    1.5098 H         1 UNK         0.0806 
    115 H115       29.0575   31.3824    3.3536 H         1 UNK         0.3010 
    116 H116       28.6581   33.2292    5.5576 H         1 UNK         0.0829 
    117 H117       28.8857   34.7637    3.5382 H         1 UNK         0.0813 
    118 H118       30.2744   34.8924    4.6010 H         1 UNK         0.0813 
    119 H119       30.3958   33.9627    3.1121 H         1 UNK         0.0813 
    120 H120       31.1006   33.6248    6.3650 H         1 UNK         0.3038 
    121 H121       32.1629   31.0427    7.0148 H         1 UNK         0.0769 
    122 H122       33.2206   33.8404    7.6634 H         1 UNK         0.0811 
    123 H123       33.6959   32.3451    8.4569 H         1 UNK         0.0811 
    124 H124       32.0542   32.9339    8.6287 H         1 UNK         0.0811 
    125 H125       32.3683   31.2129    4.2763 H         1 UNK         0.3204 
    126 H126       34.9382   31.9757    3.2557 H         1 UNK         0.0748 
    127 H127       34.2114   30.6421    1.2611 H         1 UNK         0.0771 
    128 H128       32.8650   29.9801    2.1788 H         1 UNK         0.0771 
    129 H129       32.9247   31.7026    1.8125 H         1 UNK         0.0771 
    130 H130       33.7919   29.0703    4.8650 H         1 UNK         0.2980 
    131 H131       36.1072   27.4431    4.2282 H         1 UNK         0.0545 
    132 H132       35.9126   30.1291    6.3593 H         1 UNK         0.3459 
    133 H133       37.1804   29.5987    7.4356 H         1 UNK         0.3459 
    134 H134       35.1100   25.7968    5.8101 H         1 UNK         0.0616 
    135 H135       33.9156   26.9685    6.3022 H         1 UNK         0.0616 
    136 H136       35.4333   25.1976    3.1262 H         1 UNK         0.0634 
    137 H137       34.5883   24.0074    4.0909 H         1 UNK         0.0634 
@<TRIPOS>BOND
     1    1    2 1    
     2    1   72 1    
     3    1   73 1    
     4    1   74 1    
     5    2    3 2    
     6    2    4 am   BACKBONE|DICT|INTERRES
     7    4    5 1    
     8    4   75 1    
     9    5    6 1    
    10    5   35 1    
    11    5   76 1    
    12    6    7 1    
    13    6   77 1    
    14    6   78 1    
    15    7    8 1    
    16    8    9 1    
    17    8   79 1    
    18    8   80 1    
    19    9   10 ar   
    20    9   14 ar   
    21   10   11 ar   
    22   10   81 1    
    23   11   12 ar   
    24   11   71 1    
    25   12   13 ar   
    26   12   82 1    
    27   13   14 ar   
    28   13   15 1    
    29   14   83 1    
    30   15   16 1    
    31   15   84 1    
    32   15   85 1    
    33   16   17 1    
    34   17   18 1    
    35   17   86 1    
    36   17   87 1    
    37   18   19 1    
    38   18   37 1    
    39   18   88 1    
    40   19   20 am   BACKBONE|DICT|INTERRES
    41   19   89 1    
    42   20   21 2    
    43   20   22 1    
    44   22   23 1    
    45   22   24 1    
    46   22   90 1    
    47   23   91 1    
    48   23   92 1    
    49   23   93 1    
    50   24   25 am   BACKBONE|DICT|INTERRES
    51   24   94 1    
    52   25   26 2    
    53   25   27 1    
    54   27   28 1    
    55   27   29 1    
    56   27   95 1    
    57   28   96 1    
    58   28   97 1    
    59   28   98 1    
    60   29   30 am   BACKBONE|DICT|INTERRES
    61   29   99 1    
    62   30   31 2    
    63   30   32 1    
    64   32   33 1    
    65   32   34 1    
    66   32  100 1    
    67   33  101 1    
    68   33  102 1    
    69   33  103 1    
    70   34   35 am   BACKBONE|DICT|INTERRES
    71   34  104 1    
    72   35   36 2    
    73   37   38 2    
    74   37   39 am   BACKBONE|DICT|INTERRES
    75   39   40 1    
    76   39  105 1    
    77   40   41 1    
    78   40   42 1    
    79   40  106 1    
    80   41  107 1    
    81   41  108 1    
    82   41  109 1    
    83   42   43 2    
    84   42   44 am   BACKBONE|DICT|INTERRES
    85   44   45 1    
    86   44  110 1    
    87   45   46 1    
    88   45   47 1    
    89   45  111 1    
    90   46  112 1    
    91   46  113 1    
    92   46  114 1    
    93   47   48 2    
    94   47   49 am   BACKBONE|DICT|INTERRES
    95   49   50 1    
    96   49  115 1    
    97   50   51 1    
    98   50   52 1    
    99   50  116 1    
   100   51  117 1    
   101   51  118 1    
   102   51  119 1    
   103   52   53 2    
   104   52   54 am   BACKBONE|DICT|INTERRES
   105   54   55 1    
   106   54  120 1    
   107   55   56 1    
   108   55   57 1    
   109   55  121 1    
   110   56  122 1    
   111   56  123 1    
   112   56  124 1    
   113   57   58 2    
   114   57   59 am   BACKBONE|DICT|INTERRES
   115   59   60 1    
   116   59  125 1    
   117   60   61 1    
   118   60   62 1    
   119   60  126 1    
   120   61  127 1    
   121   61  128 1    
   122   61  129 1    
   123   62   63 2    
   124   62   64 am   BACKBONE|DICT|INTERRES
   125   64   65 1    
   126   64  130 1    
   127   65   66 1    
   128   65   69 1    
   129   65  131 1    
   130   66   67 am   BACKBONE|DICT|INTERRES
   131   66   68 2    
   132   67  132 1    
   133   67  133 1    
   134   69   70 1    
   135   69  134 1    
   136   69  135 1    
   137   70   71 1    
   138   71  136 1    
   139   71  137 1    
@<TRIPOS>SUBSTRUCTURE
     1 UNK         1 GROUP             0       ****    0 ROOT    
