@<TRIPOS>MOLECULE
3R136
137   139    1
SMALL
USER_CHARGES


@<TRIPOS>ATOM
      1 CA         24.1921   23.6652    4.0517 C.3       0 UNK        -0.1979 
      2 C          25.0256   22.9803    2.9781 C.2       0 UNK         0.4864 
      3 O          24.4985   22.1600    2.2248 O.2       0 UNK        -0.5359 
      4 N          26.3239   23.3039    2.9097 N.am      1 UNK        -0.4318 
      5 CA         27.2608   22.7989    1.9017 C.3       1 UNK         0.0824 
      6 C6         28.7273   23.1064    2.3049 C.3       12 UNK        -0.0944 
      7 S7         29.9281   22.0863    1.3811 S.3       12 UNK        -0.2672 
      8 C8         31.1372   21.6524    2.6683 C.3       12 UNK         0.0333 
      9 C9         32.1118   22.7925    2.9201 C.ar      12 UNK        -0.0807 
     10 C10        33.2334   22.9421    2.0998 C.ar      12 UNK        -0.0894 
     11 C11        34.1513   23.9704    2.3308 C.ar      12 UNK        -0.0804 
     12 C12        33.9414   24.8530    3.3940 C.ar      12 UNK        -0.0824 
     13 C13        32.8078   24.7320    4.2026 C.ar      12 UNK        -0.0762 
     14 C14        31.9013   23.6921    3.9690 C.ar      12 UNK        -0.0782 
     15 C15        32.5493   25.7431    5.3105 C.3       12 UNK         0.0230 
     16 S16        31.9928   27.3445    4.6413 S.3       12 UNK        -0.2608 
     17 C17        30.5250   26.8344    3.6883 C.3       12 UNK        -0.0989 
     18 CA         29.6365   28.0240    3.2523 C.3       5 UNK         0.0716 
     19 N          28.8556   27.6764    2.0600 N.am      5 UNK        -0.4135 
     20 C          28.0127   28.4722    1.3860 C.2       4 UNK         0.5031 
     21 O          27.6960   29.6025    1.7600 O.2       4 UNK        -0.5229 
     22 CA         27.3943   27.8906    0.1012 C.3       4 UNK         0.0329 
     23 CB         27.0704   28.9794   -0.9436 C.3       4 UNK        -0.2001 
     24 N          28.1847   26.7949   -0.4800 N.am      4 UNK        -0.4303 
     25 C          29.4099   26.8648   -1.0316 C.2       3 UNK         0.5044 
     26 O          30.0397   27.9141   -1.1573 O.2       3 UNK        -0.5152 
     27 CA         30.0745   25.5456   -1.4853 C.3       3 UNK         0.0319 
     28 CB         31.2920   25.2288   -0.5971 C.3       3 UNK        -0.2001 
     29 N          29.1774   24.3873   -1.4698 N.am      3 UNK        -0.4354 
     30 C          28.1388   24.1880   -2.2957 C.2       2 UNK         0.4964 
     31 O          27.8905   24.9030   -3.2662 O.2       2 UNK        -0.5047 
     32 CA         27.1870   23.0230   -1.9529 C.3       2 UNK         0.0288 
     33 CB         27.4781   21.8091   -2.8500 C.3       2 UNK        -0.2113 
     34 N          27.2401   22.6045   -0.5452 N.am      2 UNK        -0.4145 
     35 C          26.9435   23.3811    0.5080 C.2       1 UNK         0.5006 
     36 O          26.5342   24.5412    0.4071 O.2       1 UNK        -0.5103 
     37 C          28.7821   28.5534    4.4239 C.2       5 UNK         0.5055 
     38 O          29.2410   29.4302    5.1536 O.2       5 UNK        -0.5220 
     39 N          27.5407   28.0617    4.5495 N.am      6 UNK        -0.4450 
     40 CA         26.5581   28.5115    5.5403 C.3       6 UNK         0.0367 
     41 CB         25.3208   27.6014    5.4691 C.3       6 UNK        -0.1929 
     42 C          26.1469   29.9915    5.3993 C.2       6 UNK         0.5070 
     43 O          25.7220   30.5853    6.3911 O.2       6 UNK        -0.5237 
     44 N          26.2761   30.5563    4.1909 N.am      7 UNK        -0.4739 
     45 CA         26.0019   31.9623    3.8942 C.3       7 UNK         0.0276 
     46 CB         25.0372   32.0464    2.6989 C.3       7 UNK        -0.1927 
     47 C          27.2954   32.7338    3.5938 C.2       7 UNK         0.5013 
     48 O          27.4625   33.8464    4.0944 O.2       7 UNK        -0.5193 
     49 N          28.1711   32.1501    2.7646 N.am      8 UNK        -0.4253 
     50 CA         29.3748   32.7977    2.2418 C.3       8 UNK         0.0242 
     51 CB         29.8142   32.0739    0.9570 C.3       8 UNK        -0.2000 
     52 C          30.5430   32.8524    3.2386 C.2       8 UNK         0.4948 
     53 O          31.2990   33.8247    3.2018 O.2       8 UNK        -0.5275 
     54 N          30.6759   31.8104    4.0763 N.am      9 UNK        -0.4246 
     55 CA         31.8166   31.4770    4.9439 C.3       9 UNK         0.0261 
     56 CB         32.1055   32.6022    5.9592 C.3       9 UNK        -0.1959 
     57 C          33.0863   31.0880    4.1586 C.2       9 UNK         0.5033 
     58 O          33.2368   31.4369    2.9860 O.2       9 UNK        -0.5390 
     59 N          33.9854   30.3558    4.8339 N.am      10 UNK        -0.4215 
     60 CA         35.3366   29.9726    4.3924 C.3       10 UNK         0.0240 
     61 CB         36.2839   31.1841    4.5263 C.3       10 UNK        -0.1982 
     62 C          35.4054   29.3229    2.9916 C.2       10 UNK         0.4970 
     63 O          36.3198   29.6246    2.2221 O.2       10 UNK        -0.4916 
     64 N          34.4352   28.4496    2.6880 N.am      11 UNK        -0.4279 
     65 CA         34.2569   27.7773    1.3887 C.3       11 UNK         0.1003 
     66 C          33.7548   28.7080    0.2393 C.2       11 UNK         0.5709 
     67 N          33.3063   29.9286    0.5102 N.am      11 UNK        -0.7358 
     68 O          33.7506   28.3146   -0.9241 O.2       11 UNK        -0.4999 
     69 C69        35.4999   26.9202    0.9932 C.3       12 UNK        -0.0954 
     70 S70        35.0837   25.3669    0.1295 S.3       12 UNK        -0.2268 
     71 C71        35.3659   24.1222    1.4284 C.3       12 UNK         0.0203 
     72 H72        23.6990   22.9207    4.6763 H         1 UNK         0.0888 
     73 H73        24.7992   24.2986    4.6979 H         1 UNK         0.0888 
     74 H74        23.4246   24.2863    3.5907 H         1 UNK         0.0888 
     75 H75        26.6925   23.9945    3.5462 H         1 UNK         0.3017 
     76 H76        27.1296   21.7149    1.8604 H         1 UNK         0.0873 
     77 H77        28.8583   22.9058    3.3692 H         1 UNK         0.0745 
     78 H78        28.9721   24.1615    2.1686 H         1 UNK         0.0745 
     79 H79        31.6891   20.7693    2.3428 H         1 UNK         0.0705 
     80 H80        30.6255   21.3635    3.5876 H         1 UNK         0.0705 
     81 H81        33.3901   22.2559    1.2785 H         1 UNK         0.1334 
     82 H82        34.6457   25.6521    3.5772 H         1 UNK         0.1417 
     83 H83        31.0272   23.5882    4.5970 H         1 UNK         0.1562 
     84 H84        33.4628   25.8958    5.8870 H         1 UNK         0.0748 
     85 H85        31.8029   25.3685    6.0127 H         1 UNK         0.0748 
     86 H86        29.9519   26.0980    4.2557 H         1 UNK         0.0940 
     87 H87        30.9004   26.3088    2.8084 H         1 UNK         0.0940 
     88 H88        30.2897   28.8427    2.9418 H         1 UNK         0.0703 
     89 H89        29.0284   26.7652    1.6659 H         1 UNK         0.3081 
     90 H90        26.4478   27.4421    0.4063 H         1 UNK         0.0719 
     91 H91        27.9567   29.5471   -1.2281 H         1 UNK         0.0809 
     92 H92        26.6421   28.5472   -1.8478 H         1 UNK         0.0809 
     93 H93        26.3448   29.6931   -0.5511 H         1 UNK         0.0809 
     94 H94        27.7425   25.8830   -0.4097 H         1 UNK         0.2990 
     95 H95        30.4229   25.6934   -2.5095 H         1 UNK         0.0690 
     96 H96        31.0087   25.0604    0.4426 H         1 UNK         0.0788 
     97 H97        32.0100   26.0500   -0.6088 H         1 UNK         0.0788 
     98 H98        31.8201   24.3407   -0.9450 H         1 UNK         0.0788 
     99 H99        29.3217   23.7211   -0.7240 H         1 UNK         0.2993 
    100 H100       26.1710   23.3683   -2.1563 H         1 UNK         0.0949 
    101 H101       26.7565   21.0091   -2.6827 H         1 UNK         0.0767 
    102 H102       27.4189   22.0799   -3.9053 H         1 UNK         0.0767 
    103 H103       28.4760   21.4057   -2.6724 H         1 UNK         0.0767 
    104 H104       27.5998   21.6766   -0.3695 H         1 UNK         0.3013 
    105 H105       27.2344   27.3593    3.8935 H         1 UNK         0.3121 
    106 H106       27.0107   28.3972    6.5277 H         1 UNK         0.0774 
    107 H107       24.5749   27.8992    6.2076 H         1 UNK         0.0815 
    108 H108       24.8429   27.6437    4.4896 H         1 UNK         0.0815 
    109 H109       25.5791   26.5630    5.6763 H         1 UNK         0.0815 
    110 H110       26.6625   30.0037    3.4329 H         1 UNK         0.2987 
    111 H111       25.5222   32.4489    4.7465 H         1 UNK         0.0949 
    112 H112       25.4483   31.5668    1.8094 H         1 UNK         0.0806 
    113 H113       24.0854   31.5664    2.9266 H         1 UNK         0.0806 
    114 H114       24.8229   33.0847    2.4419 H         1 UNK         0.0806 
    115 H115       27.9528   31.2299    2.3843 H         1 UNK         0.3010 
    116 H116       29.1197   33.8263    1.9768 H         1 UNK         0.0829 
    117 H117       29.0219   32.0741    0.2082 H         1 UNK         0.0813 
    118 H118       30.6827   32.5619    0.5125 H         1 UNK         0.0813 
    119 H119       30.0903   31.0364    1.1511 H         1 UNK         0.0813 
    120 H120       29.9554   31.0988    4.0583 H         1 UNK         0.3038 
    121 H121       31.5115   30.5953    5.5080 H         1 UNK         0.0769 
    122 H122       32.8304   32.2789    6.7070 H         1 UNK         0.0811 
    123 H123       31.2015   32.8963    6.4924 H         1 UNK         0.0811 
    124 H124       32.5171   33.4906    5.4797 H         1 UNK         0.0811 
    125 H125       33.7476   30.0751    5.7757 H         1 UNK         0.3204 
    126 H126       35.6806   29.2077    5.0903 H         1 UNK         0.0748 
    127 H127       37.3173   30.9036    4.3183 H         1 UNK         0.0771 
    128 H128       36.0146   31.9813    3.8322 H         1 UNK         0.0771 
    129 H129       36.2608   31.5970    5.5349 H         1 UNK         0.0771 
    130 H130       33.7080   28.2793    3.3704 H         1 UNK         0.2980 
    131 H131       33.4248   27.0942    1.5627 H         1 UNK         0.0545 
    132 H132       32.9790   30.5005   -0.2505 H         1 UNK         0.3459 
    133 H133       33.3297   30.3133    1.4509 H         1 UNK         0.3459 
    134 H134       36.1814   27.4939    0.3625 H         1 UNK         0.0616 
    135 H135       36.0848   26.6664    1.8778 H         1 UNK         0.0616 
    136 H136       36.2496   24.3748    2.0159 H         1 UNK         0.0634 
    137 H137       35.5910   23.1697    0.9464 H         1 UNK         0.0634 
@<TRIPOS>BOND
     1    1    2 1    
     2    1   72 1    
     3    1   73 1    
     4    1   74 1    
     5    2    3 2    
     6    2    4 am   BACKBONE|DICT|INTERRES
     7    4    5 1    
     8    4   75 1    
     9    5    6 1    
    10    5   35 1    
    11    5   76 1    
    12    6    7 1    
    13    6   77 1    
    14    6   78 1    
    15    7    8 1    
    16    8    9 1    
    17    8   79 1    
    18    8   80 1    
    19    9   10 ar   
    20    9   14 ar   
    21   10   11 ar   
    22   10   81 1    
    23   11   12 ar   
    24   11   71 1    
    25   12   13 ar   
    26   12   82 1    
    27   13   14 ar   
    28   13   15 1    
    29   14   83 1    
    30   15   16 1    
    31   15   84 1    
    32   15   85 1    
    33   16   17 1    
    34   17   18 1    
    35   17   86 1    
    36   17   87 1    
    37   18   19 1    
    38   18   37 1    
    39   18   88 1    
    40   19   20 am   BACKBONE|DICT|INTERRES
    41   19   89 1    
    42   20   21 2    
    43   20   22 1    
    44   22   23 1    
    45   22   24 1    
    46   22   90 1    
    47   23   91 1    
    48   23   92 1    
    49   23   93 1    
    50   24   25 am   BACKBONE|DICT|INTERRES
    51   24   94 1    
    52   25   26 2    
    53   25   27 1    
    54   27   28 1    
    55   27   29 1    
    56   27   95 1    
    57   28   96 1    
    58   28   97 1    
    59   28   98 1    
    60   29   30 am   BACKBONE|DICT|INTERRES
    61   29   99 1    
    62   30   31 2    
    63   30   32 1    
    64   32   33 1    
    65   32   34 1    
    66   32  100 1    
    67   33  101 1    
    68   33  102 1    
    69   33  103 1    
    70   34   35 am   BACKBONE|DICT|INTERRES
    71   34  104 1    
    72   35   36 2    
    73   37   38 2    
    74   37   39 am   BACKBONE|DICT|INTERRES
    75   39   40 1    
    76   39  105 1    
    77   40   41 1    
    78   40   42 1    
    79   40  106 1    
    80   41  107 1    
    81   41  108 1    
    82   41  109 1    
    83   42   43 2    
    84   42   44 am   BACKBONE|DICT|INTERRES
    85   44   45 1    
    86   44  110 1    
    87   45   46 1    
    88   45   47 1    
    89   45  111 1    
    90   46  112 1    
    91   46  113 1    
    92   46  114 1    
    93   47   48 2    
    94   47   49 am   BACKBONE|DICT|INTERRES
    95   49   50 1    
    96   49  115 1    
    97   50   51 1    
    98   50   52 1    
    99   50  116 1    
   100   51  117 1    
   101   51  118 1    
   102   51  119 1    
   103   52   53 2    
   104   52   54 am   BACKBONE|DICT|INTERRES
   105   54   55 1    
   106   54  120 1    
   107   55   56 1    
   108   55   57 1    
   109   55  121 1    
   110   56  122 1    
   111   56  123 1    
   112   56  124 1    
   113   57   58 2    
   114   57   59 am   BACKBONE|DICT|INTERRES
   115   59   60 1    
   116   59  125 1    
   117   60   61 1    
   118   60   62 1    
   119   60  126 1    
   120   61  127 1    
   121   61  128 1    
   122   61  129 1    
   123   62   63 2    
   124   62   64 am   BACKBONE|DICT|INTERRES
   125   64   65 1    
   126   64  130 1    
   127   65   66 1    
   128   65   69 1    
   129   65  131 1    
   130   66   67 am   BACKBONE|DICT|INTERRES
   131   66   68 2    
   132   67  132 1    
   133   67  133 1    
   134   69   70 1    
   135   69  134 1    
   136   69  135 1    
   137   70   71 1    
   138   71  136 1    
   139   71  137 1    
@<TRIPOS>SUBSTRUCTURE
     1 UNK         1 GROUP             0       ****    0 ROOT    
