@<TRIPOS>MOLECULE
3R136
137   139    1
SMALL
USER_CHARGES


@<TRIPOS>ATOM
      1 CA         26.9102   20.6378   -0.0619 C.3       0 UNK        -0.1979 
      2 C          28.1913   21.4108   -0.3393 C.2       0 UNK         0.4864 
      3 O          29.2795   20.8363   -0.2822 O.2       0 UNK        -0.5359 
      4 N          28.0645   22.7076   -0.6314 N.am      1 UNK        -0.4318 
      5 CA         29.1578   23.6346   -0.9133 C.3       1 UNK         0.0824 
      6 C6         29.6701   24.2860    0.3937 C.3       12 UNK        -0.0944 
      7 S7         31.3657   24.9383    0.2493 S.3       12 UNK        -0.2672 
      8 C8         32.1600   24.2151    1.7224 C.3       12 UNK         0.0333 
      9 C9         31.4393   24.6025    3.0077 C.ar      12 UNK        -0.0807 
     10 C10        31.4538   25.9284    3.4462 C.ar      12 UNK        -0.0894 
     11 C11        30.7833   26.3000    4.6145 C.ar      12 UNK        -0.0804 
     12 C12        30.0897   25.3306    5.3457 C.ar      12 UNK        -0.0824 
     13 C13        30.0546   24.0009    4.9097 C.ar      12 UNK        -0.0762 
     14 C14        30.7423   23.6413    3.7470 C.ar      12 UNK        -0.0782 
     15 C15        29.2617   22.9527    5.6817 C.3       12 UNK         0.0230 
     16 S16        27.6706   22.5596    4.8746 S.3       12 UNK        -0.2608 
     17 C17        26.8325   24.1776    4.9376 C.3       12 UNK        -0.0989 
     18 CA         26.9241   24.9079    3.5648 C.3       5 UNK         0.0716 
     19 N          25.8555   24.5232    2.6334 N.am      5 UNK        -0.4135 
     20 C          24.5482   24.7963    2.7459 C.2       4 UNK         0.5031 
     21 O          24.0570   25.4822    3.6442 O.2       4 UNK        -0.5229 
     22 CA         23.6311   24.1793    1.6721 C.3       4 UNK         0.0329 
     23 CB         22.1673   24.0797    2.1417 C.3       4 UNK        -0.2001 
     24 N          23.6690   24.9197    0.4098 N.am      4 UNK        -0.4303 
     25 C          24.6697   24.8824   -0.4776 C.2       3 UNK         0.5044 
     26 O          25.7070   24.2371   -0.2961 O.2       3 UNK        -0.5152 
     27 CA         24.4563   25.6246   -1.8137 C.3       3 UNK         0.0319 
     28 CB         23.4573   26.8033   -1.7401 C.3       3 UNK        -0.2001 
     29 N          25.7393   26.0102   -2.4115 N.am      3 UNK        -0.4354 
     30 C          26.5664   26.9870   -2.0127 C.2       2 UNK         0.4964 
     31 O          26.2765   27.8540   -1.1889 O.2       2 UNK        -0.5047 
     32 CA         27.9944   26.9126   -2.5812 C.3       2 UNK         0.0288 
     33 CB         28.7253   28.2687   -2.5678 C.3       2 UNK        -0.2113 
     34 N          28.7376   25.9280   -1.7890 N.am      2 UNK        -0.4145 
     35 C          28.6435   24.6043   -1.9956 C.2       1 UNK         0.5006 
     36 O          28.1083   24.1279   -3.0018 O.2       1 UNK        -0.5103 
     37 C          27.0539   26.4396    3.6932 C.2       5 UNK         0.5055 
     38 O          26.8208   27.0091    4.7619 O.2       5 UNK        -0.5220 
     39 N          27.4530   27.0731    2.5889 N.am      6 UNK        -0.4450 
     40 CA         27.8802   28.4625    2.5255 C.3       6 UNK         0.0367 
     41 CB         26.7032   29.3546    2.0976 C.3       6 UNK        -0.1929 
     42 C          29.0447   28.5410    1.5334 C.2       6 UNK         0.5070 
     43 O          29.1842   27.6577    0.6841 O.2       6 UNK        -0.5237 
     44 N          29.8484   29.5973    1.6656 N.am      7 UNK        -0.4739 
     45 CA         30.9926   29.9591    0.8324 C.3       7 UNK         0.0276 
     46 CB         32.1225   28.9143    0.9453 C.3       7 UNK        -0.1927 
     47 C          31.4657   31.3491    1.2857 C.2       7 UNK         0.5013 
     48 O          30.9419   31.8805    2.2707 O.2       7 UNK        -0.5193 
     49 N          32.4369   31.9196    0.5630 N.am      8 UNK        -0.4253 
     50 CA         33.0620   33.2030    0.8921 C.3       8 UNK         0.0242 
     51 CB         33.9028   33.6725   -0.3067 C.3       8 UNK        -0.2000 
     52 C          33.9379   33.1101    2.1542 C.2       8 UNK         0.4948 
     53 O          34.5473   32.0650    2.3982 O.2       8 UNK        -0.5275 
     54 N          34.0143   34.2217    2.9007 N.am      9 UNK        -0.4246 
     55 CA         34.7935   34.4027    4.1333 C.3       9 UNK         0.0261 
     56 CB         36.3059   34.4317    3.8097 C.3       9 UNK        -0.1959 
     57 C          34.4048   33.3845    5.2272 C.2       9 UNK         0.5033 
     58 O          33.2248   33.0473    5.3525 O.2       9 UNK        -0.5390 
     59 N          35.3864   32.9001    5.9983 N.am      10 UNK        -0.4215 
     60 CA         35.2238   31.8674    7.0250 C.3       10 UNK         0.0240 
     61 CB         36.3318   32.0375    8.0823 C.3       10 UNK        -0.1982 
     62 C          35.2053   30.4581    6.3990 C.2       10 UNK         0.4970 
     63 O          36.0520   29.6271    6.7331 O.2       10 UNK        -0.4916 
     64 N          34.2499   30.2314    5.4888 N.am      11 UNK        -0.4279 
     65 CA         34.0580   28.9978    4.7102 C.3       11 UNK         0.1003 
     66 C          35.2745   28.6525    3.8000 C.2       11 UNK         0.5709 
     67 N          35.7652   29.5984    3.0102 N.am      11 UNK        -0.7358 
     68 O          35.7796   27.5318    3.7968 O.2       11 UNK        -0.4999 
     69 C69        33.5748   27.7954    5.5729 C.3       12 UNK        -0.0954 
     70 S70        31.9739   28.0920    6.3970 S.3       12 UNK        -0.2268 
     71 C71        30.7783   27.7551    5.0630 C.3       12 UNK         0.0203 
     72 H72        26.8121   19.8090   -0.7624 H         1 UNK         0.0888 
     73 H73        26.9292   20.2314    0.9491 H         1 UNK         0.0888 
     74 H74        26.0263   21.2690   -0.1569 H         1 UNK         0.0888 
     75 H75        27.1387   23.1316   -0.6767 H         1 UNK         0.3017 
     76 H76        29.9757   23.0759   -1.3736 H         1 UNK         0.0873 
     77 H77        29.6727   23.5278    1.1766 H         1 UNK         0.0745 
     78 H78        28.9972   25.0619    0.7576 H         1 UNK         0.0745 
     79 H79        32.2000   23.1306    1.6089 H         1 UNK         0.0705 
     80 H80        33.1944   24.5581    1.7719 H         1 UNK         0.0705 
     81 H81        31.9822   26.6715    2.8670 H         1 UNK         0.1334 
     82 H82        29.5622   25.6195    6.2446 H         1 UNK         0.1417 
     83 H83        30.7137   22.6146    3.4074 H         1 UNK         0.1562 
     84 H84        29.0767   23.2845    6.7047 H         1 UNK         0.0748 
     85 H85        29.8513   22.0383    5.7625 H         1 UNK         0.0748 
     86 H86        27.2851   24.7529    5.7462 H         1 UNK         0.0940 
     87 H87        25.7953   24.0323    5.2423 H         1 UNK         0.0940 
     88 H88        27.8542   24.5987    3.0845 H         1 UNK         0.0703 
     89 H89        26.1475   24.0220    1.8035 H         1 UNK         0.3081 
     90 H90        23.9817   23.1612    1.4870 H         1 UNK         0.0719 
     91 H91        21.7253   25.0632    2.3067 H         1 UNK         0.0809 
     92 H92        21.5514   23.5532    1.4124 H         1 UNK         0.0809 
     93 H93        22.0958   23.5290    3.0808 H         1 UNK         0.0809 
     94 H94        22.8632   25.4902    0.1990 H         1 UNK         0.2990 
     95 H95        24.0320   24.8858   -2.4948 H         1 UNK         0.0690 
     96 H96        23.4322   27.3566   -2.6789 H         1 UNK         0.0788 
     97 H97        23.7094   27.5082   -0.9469 H         1 UNK         0.0788 
     98 H98        22.4421   26.4510   -1.5552 H         1 UNK         0.0788 
     99 H99        26.1349   25.3164   -3.0345 H         1 UNK         0.2993 
    100 H100       27.9379   26.5874   -3.6226 H         1 UNK         0.0949 
    101 H101       29.7509   28.1693   -2.9232 H         1 UNK         0.0767 
    102 H102       28.2215   28.9817   -3.2212 H         1 UNK         0.0767 
    103 H103       28.7585   28.7149   -1.5752 H         1 UNK         0.0767 
    104 H104       29.1527   26.2754   -0.9289 H         1 UNK         0.3013 
    105 H105       27.6681   26.5511    1.7488 H         1 UNK         0.3121 
    106 H106       28.2441   28.7844    3.5037 H         1 UNK         0.0774 
    107 H107       27.0041   30.4012    2.0394 H         1 UNK         0.0815 
    108 H108       26.3179   29.0704    1.1188 H         1 UNK         0.0815 
    109 H109       25.8810   29.2916    2.8106 H         1 UNK         0.0815 
    110 H110       29.6546   30.2959    2.3753 H         1 UNK         0.2987 
    111 H111       30.6587   30.0298   -0.2047 H         1 UNK         0.0949 
    112 H112       32.9917   29.1974    0.3511 H         1 UNK         0.0806 
    113 H113       32.4572   28.7988    1.9731 H         1 UNK         0.0806 
    114 H114       31.8041   27.9366    0.5858 H         1 UNK         0.0806 
    115 H115       32.8372   31.4080   -0.2096 H         1 UNK         0.3010 
    116 H116       32.2675   33.9316    1.0685 H         1 UNK         0.0829 
    117 H117       33.2923   33.7808   -1.2034 H         1 UNK         0.0813 
    118 H118       34.3596   34.6432   -0.1087 H         1 UNK         0.0813 
    119 H119       34.7102   32.9738   -0.5308 H         1 UNK         0.0813 
    120 H120       33.4522   35.0156    2.6272 H         1 UNK         0.3038 
    121 H121       34.5198   35.3832    4.5256 H         1 UNK         0.0769 
    122 H122       36.6748   33.4555    3.4911 H         1 UNK         0.0811 
    123 H123       36.8950   34.7494    4.6707 H         1 UNK         0.0811 
    124 H124       36.5200   35.1389    3.0081 H         1 UNK         0.0811 
    125 H125       36.3320   33.1992    5.8081 H         1 UNK         0.3204 
    126 H126       34.2644   32.0094    7.5276 H         1 UNK         0.0748 
    127 H127       36.2927   33.0253    8.5419 H         1 UNK         0.0771 
    128 H128       36.2223   31.3057    8.8840 H         1 UNK         0.0771 
    129 H129       37.3260   31.9058    7.6533 H         1 UNK         0.0771 
    130 H130       33.6308   31.0018    5.2617 H         1 UNK         0.2980 
    131 H131       33.2530   29.2294    4.0159 H         1 UNK         0.0545 
    132 H132       35.3234   30.5141    2.9387 H         1 UNK         0.3459 
    133 H133       36.5534   29.3822    2.4225 H         1 UNK         0.3459 
    134 H134       33.4929   26.8911    4.9706 H         1 UNK         0.0616 
    135 H135       34.3115   27.5628    6.3430 H         1 UNK         0.0616 
    136 H136       30.9803   28.4173    4.2203 H         1 UNK         0.0634 
    137 H137       29.7805   28.0170    5.4181 H         1 UNK         0.0634 
@<TRIPOS>BOND
     1    1    2 1    
     2    1   72 1    
     3    1   73 1    
     4    1   74 1    
     5    2    3 2    
     6    2    4 am   BACKBONE|DICT|INTERRES
     7    4    5 1    
     8    4   75 1    
     9    5    6 1    
    10    5   35 1    
    11    5   76 1    
    12    6    7 1    
    13    6   77 1    
    14    6   78 1    
    15    7    8 1    
    16    8    9 1    
    17    8   79 1    
    18    8   80 1    
    19    9   10 ar   
    20    9   14 ar   
    21   10   11 ar   
    22   10   81 1    
    23   11   12 ar   
    24   11   71 1    
    25   12   13 ar   
    26   12   82 1    
    27   13   14 ar   
    28   13   15 1    
    29   14   83 1    
    30   15   16 1    
    31   15   84 1    
    32   15   85 1    
    33   16   17 1    
    34   17   18 1    
    35   17   86 1    
    36   17   87 1    
    37   18   19 1    
    38   18   37 1    
    39   18   88 1    
    40   19   20 am   BACKBONE|DICT|INTERRES
    41   19   89 1    
    42   20   21 2    
    43   20   22 1    
    44   22   23 1    
    45   22   24 1    
    46   22   90 1    
    47   23   91 1    
    48   23   92 1    
    49   23   93 1    
    50   24   25 am   BACKBONE|DICT|INTERRES
    51   24   94 1    
    52   25   26 2    
    53   25   27 1    
    54   27   28 1    
    55   27   29 1    
    56   27   95 1    
    57   28   96 1    
    58   28   97 1    
    59   28   98 1    
    60   29   30 am   BACKBONE|DICT|INTERRES
    61   29   99 1    
    62   30   31 2    
    63   30   32 1    
    64   32   33 1    
    65   32   34 1    
    66   32  100 1    
    67   33  101 1    
    68   33  102 1    
    69   33  103 1    
    70   34   35 am   BACKBONE|DICT|INTERRES
    71   34  104 1    
    72   35   36 2    
    73   37   38 2    
    74   37   39 am   BACKBONE|DICT|INTERRES
    75   39   40 1    
    76   39  105 1    
    77   40   41 1    
    78   40   42 1    
    79   40  106 1    
    80   41  107 1    
    81   41  108 1    
    82   41  109 1    
    83   42   43 2    
    84   42   44 am   BACKBONE|DICT|INTERRES
    85   44   45 1    
    86   44  110 1    
    87   45   46 1    
    88   45   47 1    
    89   45  111 1    
    90   46  112 1    
    91   46  113 1    
    92   46  114 1    
    93   47   48 2    
    94   47   49 am   BACKBONE|DICT|INTERRES
    95   49   50 1    
    96   49  115 1    
    97   50   51 1    
    98   50   52 1    
    99   50  116 1    
   100   51  117 1    
   101   51  118 1    
   102   51  119 1    
   103   52   53 2    
   104   52   54 am   BACKBONE|DICT|INTERRES
   105   54   55 1    
   106   54  120 1    
   107   55   56 1    
   108   55   57 1    
   109   55  121 1    
   110   56  122 1    
   111   56  123 1    
   112   56  124 1    
   113   57   58 2    
   114   57   59 am   BACKBONE|DICT|INTERRES
   115   59   60 1    
   116   59  125 1    
   117   60   61 1    
   118   60   62 1    
   119   60  126 1    
   120   61  127 1    
   121   61  128 1    
   122   61  129 1    
   123   62   63 2    
   124   62   64 am   BACKBONE|DICT|INTERRES
   125   64   65 1    
   126   64  130 1    
   127   65   66 1    
   128   65   69 1    
   129   65  131 1    
   130   66   67 am   BACKBONE|DICT|INTERRES
   131   66   68 2    
   132   67  132 1    
   133   67  133 1    
   134   69   70 1    
   135   69  134 1    
   136   69  135 1    
   137   70   71 1    
   138   71  136 1    
   139   71  137 1    
@<TRIPOS>SUBSTRUCTURE
     1 UNK         1 GROUP             0       ****    0 ROOT    
