@<TRIPOS>MOLECULE
3R136
137   139    1
SMALL
USER_CHARGES


@<TRIPOS>ATOM
      1 CA         27.7784   17.1931    0.3113 C.3       0 UNK        -0.1979 
      2 C          27.4767   18.6814    0.2205 C.2       0 UNK         0.4864 
      3 O          26.7590   19.1080   -0.6867 O.2       0 UNK        -0.5359 
      4 N          28.0147   19.4786    1.1528 N.am      1 UNK        -0.4318 
      5 CA         27.8319   20.9315    1.2301 C.3       1 UNK         0.0824 
      6 C6         28.9690   21.6223    2.0263 C.3       12 UNK        -0.0944 
      7 S7         30.5819   21.4549    1.1907 S.3       12 UNK        -0.2672 
      8 C8         30.6568   23.0240    0.2612 C.3       12 UNK         0.0333 
      9 C9         31.4675   24.1172    0.9548 C.ar      12 UNK        -0.0807 
     10 C10        31.3151   24.3963    2.3197 C.ar      12 UNK        -0.0894 
     11 C11        32.0755   25.3975    2.9323 C.ar      12 UNK        -0.0804 
     12 C12        32.9794   26.1393    2.1660 C.ar      12 UNK        -0.0824 
     13 C13        33.1282   25.8850    0.8004 C.ar      12 UNK        -0.0762 
     14 C14        32.3749   24.8709    0.2034 C.ar      12 UNK        -0.0782 
     15 C15        34.1259   26.6885   -0.0187 C.3       12 UNK         0.0230 
     16 S16        33.4418   28.2929   -0.5340 S.3       12 UNK        -0.2608 
     17 C17        32.3185   27.8320   -1.9030 C.3       12 UNK        -0.0989 
     18 CA         30.8405   28.2434   -1.6777 C.3       5 UNK         0.0716 
     19 N          30.2574   27.5732   -0.5071 N.am      5 UNK        -0.4135 
     20 C          28.9446   27.4736   -0.2566 C.2       4 UNK         0.5031 
     21 O          28.0708   27.9415   -0.9912 O.2       4 UNK        -0.5229 
     22 CA         28.5553   26.7580    1.0489 C.3       4 UNK         0.0329 
     23 CB         28.8630   27.6353    2.2724 C.3       4 UNK        -0.2001 
     24 N          27.1343   26.4064    1.0740 N.am      4 UNK        -0.4303 
     25 C          26.6102   25.3318    0.4773 C.2       3 UNK         0.5044 
     26 O          27.2736   24.4762   -0.1170 O.2       3 UNK        -0.5152 
     27 CA         25.0857   25.1793    0.5602 C.3       3 UNK         0.0319 
     28 CB         24.3883   25.9013   -0.6045 C.3       3 UNK        -0.2001 
     29 N          24.7998   23.7532    0.4963 N.am      3 UNK        -0.4354 
     30 C          23.9093   23.0832    1.2353 C.2       2 UNK         0.4964 
     31 O          23.0508   23.6190    1.9371 O.2       2 UNK        -0.5047 
     32 CA         24.0274   21.5462    1.2138 C.3       2 UNK         0.0288 
     33 CB         23.0881   20.9436    0.1568 C.3       2 UNK        -0.2113 
     34 N          25.4003   21.0907    0.9603 N.am      2 UNK        -0.4145 
     35 C          26.4373   21.2819    1.7889 C.2       1 UNK         0.5006 
     36 O          26.3207   21.7229    2.9345 O.2       1 UNK        -0.5103 
     37 C          30.6788   29.7830   -1.6649 C.2       5 UNK         0.5055 
     38 O          30.7998   30.4095   -2.7194 O.2       5 UNK        -0.5220 
     39 N          30.4218   30.3630   -0.4880 N.am      6 UNK        -0.4450 
     40 CA         30.2117   31.7859   -0.2471 C.3       6 UNK         0.0367 
     41 CB         31.5622   32.4599    0.0597 C.3       6 UNK        -0.1929 
     42 C          29.2315   31.9290    0.9237 C.2       6 UNK         0.5070 
     43 O          28.8213   30.9216    1.5069 O.2       6 UNK        -0.5237 
     44 N          28.8841   33.1740    1.2707 N.am      7 UNK        -0.4739 
     45 CA         27.9817   33.5317    2.3711 C.3       7 UNK         0.0276 
     46 CB         27.5229   34.9896    2.1801 C.3       7 UNK        -0.1927 
     47 C          28.6101   33.2907    3.7604 C.2       7 UNK         0.5013 
     48 O          28.8894   34.2461    4.4866 O.2       7 UNK        -0.5193 
     49 N          28.8543   32.0136    4.0844 N.am      8 UNK        -0.4253 
     50 CA         29.3815   31.4356    5.3310 C.3       8 UNK         0.0242 
     51 CB         28.4443   31.7322    6.5173 C.3       8 UNK        -0.2000 
     52 C          30.8352   31.8032    5.6840 C.2       8 UNK         0.4948 
     53 O          31.5210   30.9799    6.2875 O.2       8 UNK        -0.5275 
     54 N          31.2958   33.0005    5.3006 N.am      9 UNK        -0.4246 
     55 CA         32.6157   33.5664    5.6078 C.3       9 UNK         0.0261 
     56 CB         32.6946   34.9859    5.0225 C.3       9 UNK        -0.1959 
     57 C          33.8202   32.7272    5.1384 C.2       9 UNK         0.5033 
     58 O          34.8962   32.8424    5.7269 O.2       9 UNK        -0.5390 
     59 N          33.6260   31.9045    4.0995 N.am      10 UNK        -0.4215 
     60 CA         34.6258   30.9674    3.5842 C.3       10 UNK         0.0240 
     61 CB         34.2631   30.5920    2.1385 C.3       10 UNK        -0.1982 
     62 C          34.7808   29.6958    4.4397 C.2       10 UNK         0.4970 
     63 O          35.8044   29.0223    4.3119 O.2       10 UNK        -0.4916 
     64 N          33.7756   29.3650    5.2605 N.am      11 UNK        -0.4279 
     65 CA         33.7573   28.1632    6.1048 C.3       11 UNK         0.1003 
     66 C          34.5285   28.3673    7.4361 C.2       11 UNK         0.5709 
     67 N          34.9792   27.2860    8.0587 N.am      11 UNK        -0.7358 
     68 O          34.7027   29.4817    7.9265 O.2       11 UNK        -0.4999 
     69 C69        32.3110   27.6581    6.3576 C.3       12 UNK        -0.0954 
     70 S70        31.4074   27.3357    4.8059 S.3       12 UNK        -0.2268 
     71 C71        31.9672   25.6449    4.4307 C.3       12 UNK         0.0203 
     72 H72        28.4270   16.9594    1.1554 H         1 UNK         0.0888 
     73 H73        26.8531   16.6295    0.4276 H         1 UNK         0.0888 
     74 H74        28.2720   16.8548   -0.5993 H         1 UNK         0.0888 
     75 H75        28.5894   19.0748    1.8787 H         1 UNK         0.3017 
     76 H76        27.8656   21.3348    0.2150 H         1 UNK         0.0873 
     77 H77        28.7496   22.6832    2.1626 H         1 UNK         0.0745 
     78 H78        29.0520   21.1996    3.0293 H         1 UNK         0.0745 
     79 H79        31.0915   22.7991   -0.7139 H         1 UNK         0.0705 
     80 H80        29.6519   23.3935    0.0597 H         1 UNK         0.0705 
     81 H81        30.6211   23.8202    2.9142 H         1 UNK         0.1334 
     82 H82        33.5722   26.9127    2.6364 H         1 UNK         0.1417 
     83 H83        32.5004   24.6637   -0.8508 H         1 UNK         0.1562 
     84 H84        34.4561   26.1280   -0.8947 H         1 UNK         0.0748 
     85 H85        35.0215   26.8686    0.5781 H         1 UNK         0.0748 
     86 H86        32.3737   26.7579   -2.0806 H         1 UNK         0.0940 
     87 H87        32.7000   28.2880   -2.8189 H         1 UNK         0.0940 
     88 H88        30.2796   27.8953   -2.5480 H         1 UNK         0.0703 
     89 H89        30.9191   27.1771    0.1466 H         1 UNK         0.3081 
     90 H90        29.1472   25.8443    1.1208 H         1 UNK         0.0719 
     91 H91        29.8985   27.9774    2.2707 H         1 UNK         0.0809 
     92 H92        28.7111   27.0816    3.1990 H         1 UNK         0.0809 
     93 H93        28.2263   28.5190    2.3063 H         1 UNK         0.0809 
     94 H94        26.5129   27.0819    1.4945 H         1 UNK         0.2990 
     95 H95        24.7403   25.5895    1.5118 H         1 UNK         0.0690 
     96 H96        23.3063   25.7785   -0.5543 H         1 UNK         0.0788 
     97 H97        24.7241   25.5234   -1.5711 H         1 UNK         0.0788 
     98 H98        24.5965   26.9718   -0.5819 H         1 UNK         0.0788 
     99 H99        25.4961   23.2275   -0.0168 H         1 UNK         0.2993 
    100 H100       23.7248   21.1791    2.1970 H         1 UNK         0.0949 
    101 H101       23.1145   19.8539    0.1782 H         1 UNK         0.0767 
    102 H102       22.0551   21.2459    0.3355 H         1 UNK         0.0767 
    103 H103       23.3534   21.2665   -0.8508 H         1 UNK         0.0767 
    104 H104       25.5853   20.6278    0.0758 H         1 UNK         0.3013 
    105 H105       30.2374   29.7795    0.3176 H         1 UNK         0.3121 
    106 H106       29.7575   32.2446   -1.1280 H         1 UNK         0.0774 
    107 H107       31.9803   32.1033    1.0005 H         1 UNK         0.0815 
    108 H108       32.2926   32.2649   -0.7258 H         1 UNK         0.0815 
    109 H109       31.4580   33.5424    0.1381 H         1 UNK         0.0815 
    110 H110       29.2850   33.9459    0.7570 H         1 UNK         0.2987 
    111 H111       27.0949   32.8966    2.3084 H         1 UNK         0.0949 
    112 H112       28.3626   35.6855    2.2048 H         1 UNK         0.0806 
    113 H113       27.0045   35.1220    1.2304 H         1 UNK         0.0806 
    114 H114       26.8300   35.2875    2.9684 H         1 UNK         0.0806 
    115 H115       28.6864   31.3418    3.3377 H         1 UNK         0.3010 
    116 H116       29.3757   30.3556    5.1722 H         1 UNK         0.0829 
    117 H117       27.4298   31.3879    6.3169 H         1 UNK         0.0813 
    118 H118       28.7862   31.2234    7.4197 H         1 UNK         0.0813 
    119 H119       28.3990   32.7978    6.7445 H         1 UNK         0.0813 
    120 H120       30.6183   33.6242    4.8688 H         1 UNK         0.3038 
    121 H121       32.6855   33.6404    6.6949 H         1 UNK         0.0769 
    122 H122       32.5925   34.9798    3.9365 H         1 UNK         0.0811 
    123 H123       33.6511   35.4547    5.2583 H         1 UNK         0.0811 
    124 H124       31.9126   35.6274    5.4292 H         1 UNK         0.0811 
    125 H125       32.7089   31.8789    3.6798 H         1 UNK         0.3204 
    126 H126       35.5965   31.4679    3.5696 H         1 UNK         0.0748 
    127 H127       34.2620   31.4674    1.4892 H         1 UNK         0.0771 
    128 H128       34.9881   29.8902    1.7235 H         1 UNK         0.0771 
    129 H129       33.2823   30.1185    2.0754 H         1 UNK         0.0771 
    130 H130       32.9960   29.9999    5.3953 H         1 UNK         0.2980 
    131 H131       34.2818   27.3741    5.5625 H         1 UNK         0.0545 
    132 H132       35.4740   27.3951    8.9303 H         1 UNK         0.3459 
    133 H133       34.8396   26.3643    7.6751 H         1 UNK         0.3459 
    134 H134       32.3149   26.7447    6.9550 H         1 UNK         0.0616 
    135 H135       31.7448   28.3921    6.9330 H         1 UNK         0.0616 
    136 H136       31.2822   24.9370    4.8995 H         1 UNK         0.0634 
    137 H137       32.9463   25.4668    4.8763 H         1 UNK         0.0634 
@<TRIPOS>BOND
     1    1    2 1    
     2    1   72 1    
     3    1   73 1    
     4    1   74 1    
     5    2    3 2    
     6    2    4 am   BACKBONE|DICT|INTERRES
     7    4    5 1    
     8    4   75 1    
     9    5    6 1    
    10    5   35 1    
    11    5   76 1    
    12    6    7 1    
    13    6   77 1    
    14    6   78 1    
    15    7    8 1    
    16    8    9 1    
    17    8   79 1    
    18    8   80 1    
    19    9   10 ar   
    20    9   14 ar   
    21   10   11 ar   
    22   10   81 1    
    23   11   12 ar   
    24   11   71 1    
    25   12   13 ar   
    26   12   82 1    
    27   13   14 ar   
    28   13   15 1    
    29   14   83 1    
    30   15   16 1    
    31   15   84 1    
    32   15   85 1    
    33   16   17 1    
    34   17   18 1    
    35   17   86 1    
    36   17   87 1    
    37   18   19 1    
    38   18   37 1    
    39   18   88 1    
    40   19   20 am   BACKBONE|DICT|INTERRES
    41   19   89 1    
    42   20   21 2    
    43   20   22 1    
    44   22   23 1    
    45   22   24 1    
    46   22   90 1    
    47   23   91 1    
    48   23   92 1    
    49   23   93 1    
    50   24   25 am   BACKBONE|DICT|INTERRES
    51   24   94 1    
    52   25   26 2    
    53   25   27 1    
    54   27   28 1    
    55   27   29 1    
    56   27   95 1    
    57   28   96 1    
    58   28   97 1    
    59   28   98 1    
    60   29   30 am   BACKBONE|DICT|INTERRES
    61   29   99 1    
    62   30   31 2    
    63   30   32 1    
    64   32   33 1    
    65   32   34 1    
    66   32  100 1    
    67   33  101 1    
    68   33  102 1    
    69   33  103 1    
    70   34   35 am   BACKBONE|DICT|INTERRES
    71   34  104 1    
    72   35   36 2    
    73   37   38 2    
    74   37   39 am   BACKBONE|DICT|INTERRES
    75   39   40 1    
    76   39  105 1    
    77   40   41 1    
    78   40   42 1    
    79   40  106 1    
    80   41  107 1    
    81   41  108 1    
    82   41  109 1    
    83   42   43 2    
    84   42   44 am   BACKBONE|DICT|INTERRES
    85   44   45 1    
    86   44  110 1    
    87   45   46 1    
    88   45   47 1    
    89   45  111 1    
    90   46  112 1    
    91   46  113 1    
    92   46  114 1    
    93   47   48 2    
    94   47   49 am   BACKBONE|DICT|INTERRES
    95   49   50 1    
    96   49  115 1    
    97   50   51 1    
    98   50   52 1    
    99   50  116 1    
   100   51  117 1    
   101   51  118 1    
   102   51  119 1    
   103   52   53 2    
   104   52   54 am   BACKBONE|DICT|INTERRES
   105   54   55 1    
   106   54  120 1    
   107   55   56 1    
   108   55   57 1    
   109   55  121 1    
   110   56  122 1    
   111   56  123 1    
   112   56  124 1    
   113   57   58 2    
   114   57   59 am   BACKBONE|DICT|INTERRES
   115   59   60 1    
   116   59  125 1    
   117   60   61 1    
   118   60   62 1    
   119   60  126 1    
   120   61  127 1    
   121   61  128 1    
   122   61  129 1    
   123   62   63 2    
   124   62   64 am   BACKBONE|DICT|INTERRES
   125   64   65 1    
   126   64  130 1    
   127   65   66 1    
   128   65   69 1    
   129   65  131 1    
   130   66   67 am   BACKBONE|DICT|INTERRES
   131   66   68 2    
   132   67  132 1    
   133   67  133 1    
   134   69   70 1    
   135   69  134 1    
   136   69  135 1    
   137   70   71 1    
   138   71  136 1    
   139   71  137 1    
@<TRIPOS>SUBSTRUCTURE
     1 UNK         1 GROUP             0       ****    0 ROOT    
