@<TRIPOS>MOLECULE
3R136
137   139    1
SMALL
USER_CHARGES


@<TRIPOS>ATOM
      1 CA         32.3761   20.1102   -0.6355 C.3       0 UNK        -0.1979 
      2 C          31.2781   21.0684   -1.0727 C.2       0 UNK         0.4864 
      3 O          30.4390   20.7030   -1.8965 O.2       0 UNK        -0.5359 
      4 N          31.2712   22.2891   -0.5208 N.am      1 UNK        -0.4318 
      5 CA         30.3044   23.3520   -0.8281 C.3       1 UNK         0.0824 
      6 C6         30.9470   24.7548   -0.6622 C.3       12 UNK        -0.0944 
      7 S7         31.4401   25.1546    1.0523 S.3       12 UNK        -0.2672 
      8 C8         30.1459   26.3720    1.4542 C.3       12 UNK         0.0333 
      9 C9         29.9492   26.6329    2.9426 C.ar      12 UNK        -0.0807 
     10 C10        30.0671   25.6168    3.8966 C.ar      12 UNK        -0.0894 
     11 C11        29.8125   25.8764    5.2468 C.ar      12 UNK        -0.0804 
     12 C12        29.3781   27.1487    5.6337 C.ar      12 UNK        -0.0824 
     13 C13        29.2422   28.1694    4.6892 C.ar      12 UNK        -0.0762 
     14 C14        29.5581   27.9075    3.3541 C.ar      12 UNK        -0.0782 
     15 C15        28.7304   29.5414    5.1065 C.3       12 UNK         0.0230 
     16 S16        26.9218   29.6479    4.8944 S.3       12 UNK        -0.2608 
     17 C17        26.7307   30.9960    3.6738 C.3       12 UNK        -0.0989 
     18 CA         27.2685   30.6355    2.2665 C.3       5 UNK         0.0716 
     19 N          26.6625   29.4123    1.7166 N.am      5 UNK        -0.4135 
     20 C          27.1658   28.6510    0.7345 C.2       4 UNK         0.5031 
     21 O          28.2496   28.8770    0.1866 O.2       4 UNK        -0.5229 
     22 CA         26.3303   27.4346    0.2977 C.3       4 UNK         0.0329 
     23 CB         26.7035   26.9626   -1.1197 C.3       4 UNK        -0.2001 
     24 N          26.4933   26.3175    1.2281 N.am      4 UNK        -0.4303 
     25 C          25.9448   26.2532    2.4508 C.2       3 UNK         0.5044 
     26 O          25.1794   27.1141    2.8889 O.2       3 UNK        -0.5152 
     27 CA         26.2851   25.0234    3.3109 C.3       3 UNK         0.0319 
     28 CB         25.1883   24.6849    4.3384 C.3       3 UNK        -0.2001 
     29 N          26.5538   23.8572    2.4695 N.am      3 UNK        -0.4354 
     30 C          27.4951   22.9355    2.6996 C.2       2 UNK         0.4964 
     31 O          28.2157   22.9160    3.6971 O.2       2 UNK        -0.5047 
     32 CA         27.6827   21.8466    1.6295 C.3       2 UNK         0.0288 
     33 CB         26.4081   21.5416    0.8078 C.3       2 UNK        -0.2113 
     34 N          28.8207   22.1566    0.7572 N.am      2 UNK        -0.4145 
     35 C          28.9630   23.2107   -0.0638 C.2       1 UNK         0.5006 
     36 O          28.0895   24.0666   -0.2242 O.2       1 UNK        -0.5103 
     37 C          27.2096   31.8110    1.2663 C.2       5 UNK         0.5055 
     38 O          26.5503   32.8234    1.5086 O.2       5 UNK        -0.5220 
     39 N          27.9122   31.6156    0.1508 N.am      6 UNK        -0.4450 
     40 CA         28.1061   32.4954   -0.9948 C.3       6 UNK         0.0367 
     41 CB         26.8066   32.6415   -1.8081 C.3       6 UNK        -0.1929 
     42 C          29.2396   31.9330   -1.8677 C.2       6 UNK         0.5070 
     43 O          30.0106   32.7124   -2.4269 O.2       6 UNK        -0.5237 
     44 N          29.3463   30.5950   -1.9469 N.am      7 UNK        -0.4739 
     45 CA         30.4449   29.8821   -2.6055 C.3       7 UNK         0.0276 
     46 CB         30.0069   28.4354   -2.8884 C.3       7 UNK        -0.1927 
     47 C          31.7349   29.8917   -1.7663 C.2       7 UNK         0.5013 
     48 O          32.8272   29.8959   -2.3350 O.2       7 UNK        -0.5193 
     49 N          31.5831   29.9078   -0.4377 N.am      8 UNK        -0.4253 
     50 CA         32.6453   30.0278    0.5549 C.3       8 UNK         0.0242 
     51 CB         33.2819   28.6502    0.8276 C.3       8 UNK        -0.2000 
     52 C          32.0420   30.6316    1.8296 C.2       8 UNK         0.4948 
     53 O          30.8236   30.8144    1.9059 O.2       8 UNK        -0.5275 
     54 N          32.9037   30.9100    2.8105 N.am      9 UNK        -0.4246 
     55 CA         32.5452   31.3545    4.1537 C.3       9 UNK         0.0261 
     56 CB         32.8794   32.8476    4.3056 C.3       9 UNK        -0.1959 
     57 C          33.3364   30.5101    5.1583 C.2       9 UNK         0.5033 
     58 O          34.4122   30.0096    4.8146 O.2       9 UNK        -0.5390 
     59 N          32.7824   30.3512    6.3703 N.am      10 UNK        -0.4215 
     60 CA         33.3361   29.5913    7.5060 C.3       10 UNK         0.0240 
     61 CB         34.5454   30.3407    8.1056 C.3       10 UNK        -0.1982 
     62 C          33.6627   28.1140    7.1871 C.2       10 UNK         0.4970 
     63 O          34.5429   27.5298    7.8217 O.2       10 UNK        -0.4916 
     64 N          32.9581   27.5524    6.1966 N.am      11 UNK        -0.4279 
     65 CA         33.1805   26.2264    5.6014 C.3       11 UNK         0.1003 
     66 C          34.5494   26.0637    4.8718 C.2       11 UNK         0.5709 
     67 N          35.2284   27.1407    4.4895 N.am      11 UNK        -0.7358 
     68 O          34.9941   24.9462    4.6192 O.2       11 UNK        -0.4999 
     69 C69        32.8422   25.0382    6.5535 C.3       12 UNK        -0.0954 
     70 S70        31.2893   25.2191    7.5046 S.3       12 UNK        -0.2268 
     71 C71        30.0046   24.7816    6.2865 C.3       12 UNK         0.0203 
     72 H72        33.0404   20.5600    0.1023 H         1 UNK         0.0888 
     73 H73        31.9398   19.2132   -0.1969 H         1 UNK         0.0888 
     74 H74        32.9768   19.8120   -1.4943 H         1 UNK         0.0888 
     75 H75        31.9800   22.5381    0.1560 H         1 UNK         0.3017 
     76 H76        30.0389   23.2596   -1.8836 H         1 UNK         0.0873 
     77 H77        30.2765   25.5257   -1.0469 H         1 UNK         0.0745 
     78 H78        31.8393   24.8215   -1.2866 H         1 UNK         0.0745 
     79 H79        29.1942   26.0267    1.0588 H         1 UNK         0.0705 
     80 H80        30.3727   27.2995    0.9266 H         1 UNK         0.0705 
     81 H81        30.3588   24.6213    3.5923 H         1 UNK         0.1334 
     82 H82        29.1499   27.3419    6.6731 H         1 UNK         0.1417 
     83 H83        29.4692   28.6866    2.6154 H         1 UNK         0.1562 
     84 H84        29.2337   30.3218    4.5354 H         1 UNK         0.0748 
     85 H85        28.9725   29.7304    6.1533 H         1 UNK         0.0748 
     86 H86        27.2361   31.8826    4.0621 H         1 UNK         0.0940 
     87 H87        25.6713   31.2534    3.6186 H         1 UNK         0.0940 
     88 H88        28.3308   30.4477    2.3905 H         1 UNK         0.0703 
     89 H89        25.8127   29.0949    2.1674 H         1 UNK         0.3081 
     90 H90        25.2802   27.7341    0.2829 H         1 UNK         0.0719 
     91 H91        27.7380   26.6213   -1.1745 H         1 UNK         0.0809 
     92 H92        26.0663   26.1398   -1.4442 H         1 UNK         0.0809 
     93 H93        26.5880   27.7693   -1.8446 H         1 UNK         0.0809 
     94 H94        27.1096   25.5711    0.9245 H         1 UNK         0.2990 
     95 H95        27.1906   25.2907    3.8587 H         1 UNK         0.0690 
     96 H96        25.4747   23.8340    4.9567 H         1 UNK         0.0788 
     97 H97        24.2429   24.4442    3.8511 H         1 UNK         0.0788 
     98 H98        25.0081   25.5242    5.0115 H         1 UNK         0.0788 
     99 H99        26.0244   23.7934    1.6104 H         1 UNK         0.2993 
    100 H100       27.9454   20.9349    2.1687 H         1 UNK         0.0949 
    101 H101       25.5695   21.3010    1.4628 H         1 UNK         0.0767 
    102 H102       26.1022   22.3734    0.1731 H         1 UNK         0.0767 
    103 H103       26.5637   20.6792    0.1593 H         1 UNK         0.0767 
    104 H104       29.6101   21.5322    0.8369 H         1 UNK         0.3013 
    105 H105       28.3895   30.7199    0.0983 H         1 UNK         0.3121 
    106 H106       28.4141   33.4762   -0.6272 H         1 UNK         0.0774 
    107 H107       26.9666   33.2670   -2.6873 H         1 UNK         0.0815 
    108 H108       26.4382   31.6756   -2.1557 H         1 UNK         0.0815 
    109 H109       26.0170   33.1094   -1.2203 H         1 UNK         0.0815 
    110 H110       28.6705   30.0079   -1.4721 H         1 UNK         0.2987 
    111 H111       30.6603   30.3720   -3.5578 H         1 UNK         0.0949 
    112 H112       30.7921   27.8847   -3.4081 H         1 UNK         0.0806 
    113 H113       29.7851   27.8944   -1.9676 H         1 UNK         0.0806 
    114 H114       29.1178   28.4043   -3.5183 H         1 UNK         0.0806 
    115 H115       30.6505   29.9471   -0.0455 H         1 UNK         0.3010 
    116 H116       33.4046   30.7170    0.1791 H         1 UNK         0.0829 
    117 H117       33.5968   28.1620   -0.0947 H         1 UNK         0.0813 
    118 H118       34.1666   28.7419    1.4585 H         1 UNK         0.0813 
    119 H119       32.5921   27.9811    1.3405 H         1 UNK         0.0813 
    120 H120       33.8778   30.6554    2.7059 H         1 UNK         0.3038 
    121 H121       31.4794   31.2015    4.3331 H         1 UNK         0.0769 
    122 H122       32.6198   33.2100    5.3010 H         1 UNK         0.0811 
    123 H123       32.3244   33.4504    3.5864 H         1 UNK         0.0811 
    124 H124       33.9423   33.0405    4.1538 H         1 UNK         0.0811 
    125 H125       31.8960   30.8036    6.5490 H         1 UNK         0.3204 
    126 H126       32.5542   29.5641    8.2665 H         1 UNK         0.0748 
    127 H127       34.8854   29.8679    9.0279 H         1 UNK         0.0771 
    128 H128       35.3907   30.3565    7.4165 H         1 UNK         0.0771 
    129 H129       34.2921   31.3726    8.3487 H         1 UNK         0.0771 
    130 H130       32.2509   28.1096    5.7433 H         1 UNK         0.2980 
    131 H131       32.4752   26.1826    4.7771 H         1 UNK         0.0545 
    132 H132       36.1067   27.0205    4.0119 H         1 UNK         0.3459 
    133 H133       34.8849   28.0759    4.6830 H         1 UNK         0.3459 
    134 H134       32.7900   24.1055    5.9894 H         1 UNK         0.0616 
    135 H135       33.6479   24.9062    7.2773 H         1 UNK         0.0616 
    136 H136       30.2578   23.8295    5.8173 H         1 UNK         0.0634 
    137 H137       29.0607   24.6250    6.8100 H         1 UNK         0.0634 
@<TRIPOS>BOND
     1    1    2 1    
     2    1   72 1    
     3    1   73 1    
     4    1   74 1    
     5    2    3 2    
     6    2    4 am   BACKBONE|DICT|INTERRES
     7    4    5 1    
     8    4   75 1    
     9    5    6 1    
    10    5   35 1    
    11    5   76 1    
    12    6    7 1    
    13    6   77 1    
    14    6   78 1    
    15    7    8 1    
    16    8    9 1    
    17    8   79 1    
    18    8   80 1    
    19    9   10 ar   
    20    9   14 ar   
    21   10   11 ar   
    22   10   81 1    
    23   11   12 ar   
    24   11   71 1    
    25   12   13 ar   
    26   12   82 1    
    27   13   14 ar   
    28   13   15 1    
    29   14   83 1    
    30   15   16 1    
    31   15   84 1    
    32   15   85 1    
    33   16   17 1    
    34   17   18 1    
    35   17   86 1    
    36   17   87 1    
    37   18   19 1    
    38   18   37 1    
    39   18   88 1    
    40   19   20 am   BACKBONE|DICT|INTERRES
    41   19   89 1    
    42   20   21 2    
    43   20   22 1    
    44   22   23 1    
    45   22   24 1    
    46   22   90 1    
    47   23   91 1    
    48   23   92 1    
    49   23   93 1    
    50   24   25 am   BACKBONE|DICT|INTERRES
    51   24   94 1    
    52   25   26 2    
    53   25   27 1    
    54   27   28 1    
    55   27   29 1    
    56   27   95 1    
    57   28   96 1    
    58   28   97 1    
    59   28   98 1    
    60   29   30 am   BACKBONE|DICT|INTERRES
    61   29   99 1    
    62   30   31 2    
    63   30   32 1    
    64   32   33 1    
    65   32   34 1    
    66   32  100 1    
    67   33  101 1    
    68   33  102 1    
    69   33  103 1    
    70   34   35 am   BACKBONE|DICT|INTERRES
    71   34  104 1    
    72   35   36 2    
    73   37   38 2    
    74   37   39 am   BACKBONE|DICT|INTERRES
    75   39   40 1    
    76   39  105 1    
    77   40   41 1    
    78   40   42 1    
    79   40  106 1    
    80   41  107 1    
    81   41  108 1    
    82   41  109 1    
    83   42   43 2    
    84   42   44 am   BACKBONE|DICT|INTERRES
    85   44   45 1    
    86   44  110 1    
    87   45   46 1    
    88   45   47 1    
    89   45  111 1    
    90   46  112 1    
    91   46  113 1    
    92   46  114 1    
    93   47   48 2    
    94   47   49 am   BACKBONE|DICT|INTERRES
    95   49   50 1    
    96   49  115 1    
    97   50   51 1    
    98   50   52 1    
    99   50  116 1    
   100   51  117 1    
   101   51  118 1    
   102   51  119 1    
   103   52   53 2    
   104   52   54 am   BACKBONE|DICT|INTERRES
   105   54   55 1    
   106   54  120 1    
   107   55   56 1    
   108   55   57 1    
   109   55  121 1    
   110   56  122 1    
   111   56  123 1    
   112   56  124 1    
   113   57   58 2    
   114   57   59 am   BACKBONE|DICT|INTERRES
   115   59   60 1    
   116   59  125 1    
   117   60   61 1    
   118   60   62 1    
   119   60  126 1    
   120   61  127 1    
   121   61  128 1    
   122   61  129 1    
   123   62   63 2    
   124   62   64 am   BACKBONE|DICT|INTERRES
   125   64   65 1    
   126   64  130 1    
   127   65   66 1    
   128   65   69 1    
   129   65  131 1    
   130   66   67 am   BACKBONE|DICT|INTERRES
   131   66   68 2    
   132   67  132 1    
   133   67  133 1    
   134   69   70 1    
   135   69  134 1    
   136   69  135 1    
   137   70   71 1    
   138   71  136 1    
   139   71  137 1    
@<TRIPOS>SUBSTRUCTURE
     1 UNK         1 GROUP             0       ****    0 ROOT    
