@<TRIPOS>MOLECULE
3R136
137   139    1
SMALL
USER_CHARGES


@<TRIPOS>ATOM
      1 CA         27.7303   20.2442    1.8633 C.3       0 UNK        -0.1979 
      2 C          28.2204   21.5870    2.3860 C.2       0 UNK         0.4864 
      3 O          27.9627   21.9151    3.5454 O.2       0 UNK        -0.5359 
      4 N          28.9232   22.3497    1.5349 N.am      1 UNK        -0.4318 
      5 CA         29.4641   23.6933    1.7923 C.3       1 UNK         0.0824 
      6 C6         30.4990   23.7435    2.9595 C.3       12 UNK        -0.0944 
      7 S7         31.8593   22.5255    2.8793 S.3       12 UNK        -0.2672 
      8 C8         32.8719   23.0364    1.4463 C.3       12 UNK         0.0333 
      9 C9         32.9692   24.5445    1.2502 C.ar      12 UNK        -0.0807 
     10 C10        33.5608   25.3628    2.2198 C.ar      12 UNK        -0.0894 
     11 C11        33.6156   26.7491    2.0363 C.ar      12 UNK        -0.0804 
     12 C12        33.0887   27.3133    0.8709 C.ar      12 UNK        -0.0824 
     13 C13        32.5017   26.5037   -0.1032 C.ar      12 UNK        -0.0762 
     14 C14        32.4519   25.1217    0.0871 C.ar      12 UNK        -0.0782 
     15 C15        31.8817   27.1192   -1.3441 C.3       12 UNK         0.0230 
     16 S16        30.1263   27.4611   -1.0446 S.3       12 UNK        -0.2608 
     17 C17        29.5550   27.8275   -2.7381 C.3       12 UNK        -0.0989 
     18 CA         28.0629   28.2492   -2.8031 C.3       5 UNK         0.0716 
     19 N          27.2015   27.2828   -2.1136 N.am      5 UNK        -0.4135 
     20 C          26.4908   26.3142   -2.7050 C.2       4 UNK         0.5031 
     21 O          26.4406   26.1476   -3.9245 O.2       4 UNK        -0.5229 
     22 CA         25.7003   25.3561   -1.7903 C.3       4 UNK         0.0329 
     23 CB         26.4819   24.0466   -1.5946 C.3       4 UNK        -0.2001 
     24 N          25.3721   25.9221   -0.4777 N.am      4 UNK        -0.4303 
     25 C          24.5694   26.9804   -0.2834 C.2       3 UNK         0.5044 
     26 O          23.9625   27.5495   -1.1907 O.2       3 UNK        -0.5152 
     27 CA         24.4532   27.5421    1.1459 C.3       3 UNK         0.0319 
     28 CB         23.1410   27.0788    1.7982 C.3       3 UNK        -0.2001 
     29 N          25.5712   27.2094    2.0332 N.am      3 UNK        -0.4354 
     30 C          26.8646   27.4921    1.8226 C.2       2 UNK         0.4964 
     31 O          27.2852   28.0598    0.8138 O.2       2 UNK        -0.5047 
     32 CA         27.8630   27.0425    2.9042 C.3       2 UNK         0.0288 
     33 CB         27.2015   26.7006    4.2585 C.3       2 UNK        -0.2113 
     34 N          28.7201   25.9355    2.4714 N.am      2 UNK        -0.4145 
     35 C          28.3419   24.7499    1.9668 C.2       1 UNK         0.5006 
     36 O          27.1791   24.4859    1.6432 O.2       1 UNK        -0.5103 
     37 C          27.8224   29.6960   -2.3159 C.2       5 UNK         0.5055 
     38 O          28.5711   30.5913   -2.7119 O.2       5 UNK        -0.5220 
     39 N          26.7871   29.9073   -1.4855 N.am      6 UNK        -0.4450 
     40 CA         26.4156   31.1631   -0.8179 C.3       6 UNK         0.0367 
     41 CB         25.9042   32.1987   -1.8420 C.3       6 UNK        -0.1929 
     42 C          27.5289   31.7170    0.0986 C.2       6 UNK         0.5070 
     43 O          27.7289   32.9317    0.1636 O.2       6 UNK        -0.5237 
     44 N          28.2320   30.8113    0.7868 N.am      7 UNK        -0.4739 
     45 CA         29.3166   31.0988    1.7258 C.3       7 UNK         0.0276 
     46 CB         30.5752   30.3447    1.2478 C.3       7 UNK        -0.1927 
     47 C          28.9030   30.6804    3.1486 C.2       7 UNK         0.5013 
     48 O          27.7194   30.4502    3.4097 O.2       7 UNK        -0.5193 
     49 N          29.8937   30.5502    4.0366 N.am      8 UNK        -0.4253 
     50 CA         29.7869   29.8967    5.3379 C.3       8 UNK         0.0242 
     51 CB         30.0506   30.9209    6.4535 C.3       8 UNK        -0.2000 
     52 C          30.8473   28.7922    5.3574 C.2       8 UNK         0.4948 
     53 O          31.9535   29.0222    4.8642 O.2       8 UNK        -0.5275 
     54 N          30.5115   27.6287    5.9315 N.am      9 UNK        -0.4246 
     55 CA         31.3227   26.4011    5.9000 C.3       9 UNK         0.0261 
     56 CB         30.5130   25.2406    6.5019 C.3       9 UNK        -0.1959 
     57 C          32.7080   26.4944    6.5689 C.2       9 UNK         0.5033 
     58 O          33.5649   25.6565    6.2866 O.2       9 UNK        -0.5390 
     59 N          32.9164   27.5081    7.4181 N.am      10 UNK        -0.4215 
     60 CA         34.2088   27.8318    8.0243 C.3       10 UNK         0.0240 
     61 CB         33.9701   28.7282    9.2513 C.3       10 UNK        -0.1982 
     62 C          35.1990   28.5064    7.0527 C.2       10 UNK         0.4970 
     63 O          36.3918   28.5292    7.3579 O.2       10 UNK        -0.4916 
     64 N          34.7018   29.0674    5.9379 N.am      11 UNK        -0.4279 
     65 CA         35.4593   29.8607    4.9501 C.3       11 UNK         0.1003 
     66 C          36.0173   31.2084    5.5106 C.2       11 UNK         0.5709 
     67 N          35.4939   31.7339    6.6126 N.am      11 UNK        -0.7358 
     68 O          36.9128   31.8121    4.9238 O.2       11 UNK        -0.4999 
     69 C69        36.5392   29.0357    4.1757 C.3       12 UNK        -0.0954 
     70 S70        36.0107   27.6203    3.1324 S.3       12 UNK        -0.2268 
     71 C71        34.1936   27.6504    3.1137 C.3       12 UNK         0.0203 
     72 H72        26.6425   20.1988    1.9101 H         1 UNK         0.0888 
     73 H73        28.0323   20.0722    0.8303 H         1 UNK         0.0888 
     74 H74        28.1324   19.4353    2.4727 H         1 UNK         0.0888 
     75 H75        29.0701   22.0091    0.5958 H         1 UNK         0.3017 
     76 H76        29.9809   23.9765    0.8757 H         1 UNK         0.0873 
     77 H77        29.9917   23.5858    3.9125 H         1 UNK         0.0745 
     78 H78        30.9557   24.7288    3.0384 H         1 UNK         0.0745 
     79 H79        32.4585   22.5607    0.5556 H         1 UNK         0.0705 
     80 H80        33.8764   22.6284    1.5653 H         1 UNK         0.0705 
     81 H81        33.9558   24.9245    3.1269 H         1 UNK         0.1334 
     82 H82        33.1137   28.3854    0.7303 H         1 UNK         0.1417 
     83 H83        31.9893   24.4991   -0.6668 H         1 UNK         0.1562 
     84 H84        31.9880   26.4415   -2.1926 H         1 UNK         0.0748 
     85 H85        32.3941   28.0440   -1.6141 H         1 UNK         0.0748 
     86 H86        29.6971   26.9286   -3.3402 H         1 UNK         0.0940 
     87 H87        30.2018   28.5855   -3.1844 H         1 UNK         0.0940 
     88 H88        27.7842   28.2783   -3.8584 H         1 UNK         0.0703 
     89 H89        27.2325   27.3247   -1.0994 H         1 UNK         0.3081 
     90 H90        24.7603   25.1227   -2.2948 H         1 UNK         0.0719 
     91 H91        26.6730   23.5596   -2.5519 H         1 UNK         0.0809 
     92 H92        27.4484   24.2222   -1.1206 H         1 UNK         0.0809 
     93 H93        25.9286   23.3398   -0.9759 H         1 UNK         0.0809 
     94 H94        25.8426   25.5144    0.3243 H         1 UNK         0.2990 
     95 H95        24.4261   28.6303    1.0597 H         1 UNK         0.0690 
     96 H96        22.9900   27.5523    2.7685 H         1 UNK         0.0788 
     97 H97        23.1232   25.9978    1.9438 H         1 UNK         0.0788 
     98 H98        22.2822   27.3383    1.1772 H         1 UNK         0.0788 
     99 H99        25.3368   26.7088    2.8782 H         1 UNK         0.2993 
    100 H100       28.5302   27.8863    3.0676 H         1 UNK         0.0949 
    101 H101       26.5755   25.8092    4.2004 H         1 UNK         0.0767 
    102 H102       27.9532   26.5171    5.0238 H         1 UNK         0.0767 
    103 H103       26.5834   27.5259    4.6160 H         1 UNK         0.0767 
    104 H104       29.7086   26.0863    2.6087 H         1 UNK         0.3013 
    105 H105       26.2323   29.1042   -1.2274 H         1 UNK         0.3121 
    106 H106       25.5827   30.9178   -0.1571 H         1 UNK         0.0774 
    107 H107       25.1051   31.7868   -2.4580 H         1 UNK         0.0815 
    108 H108       25.5029   33.0797   -1.3397 H         1 UNK         0.0815 
    109 H109       26.6995   32.5386   -2.5059 H         1 UNK         0.0815 
    110 H110       27.9521   29.8353    0.7211 H         1 UNK         0.2987 
    111 H111       29.5328   32.1689    1.7476 H         1 UNK         0.0949 
    112 H112       30.7755   30.5393    0.1936 H         1 UNK         0.0806 
    113 H113       31.4646   30.6502    1.7996 H         1 UNK         0.0806 
    114 H114       30.4672   29.2655    1.3674 H         1 UNK         0.0806 
    115 H115       30.8462   30.6952    3.7278 H         1 UNK         0.3010 
    116 H116       28.7981   29.4529    5.4742 H         1 UNK         0.0829 
    117 H117       29.9771   30.4568    7.4378 H         1 UNK         0.0813 
    118 H118       31.0448   31.3630    6.3721 H         1 UNK         0.0813 
    119 H119       29.3224   31.7315    6.4226 H         1 UNK         0.0813 
    120 H120       29.6018   27.5482    6.3631 H         1 UNK         0.3038 
    121 H121       31.5105   26.1725    4.8494 H         1 UNK         0.0769 
    122 H122       31.0813   24.3096    6.4692 H         1 UNK         0.0811 
    123 H123       29.5895   25.0657    5.9510 H         1 UNK         0.0811 
    124 H124       30.2545   25.4272    7.5449 H         1 UNK         0.0811 
    125 H125       32.1514   28.1406    7.6005 H         1 UNK         0.3204 
    126 H126       34.6720   26.9036    8.3663 H         1 UNK         0.0748 
    127 H127       34.9108   28.9703    9.7482 H         1 UNK         0.0771 
    128 H128       33.4934   29.6707    8.9791 H         1 UNK         0.0771 
    129 H129       33.3373   28.2319    9.9876 H         1 UNK         0.0771 
    130 H130       33.7058   28.9993    5.7522 H         1 UNK         0.2980 
    131 H131       34.7231   30.1997    4.2236 H         1 UNK         0.0545 
    132 H132       34.7468   31.2665    7.0987 H         1 UNK         0.3459 
    133 H133       35.8533   32.6096    6.9584 H         1 UNK         0.3459 
    134 H134       37.0795   29.6932    3.4928 H         1 UNK         0.0616 
    135 H135       37.2950   28.6668    4.8698 H         1 UNK         0.0616 
    136 H136       33.8228   27.3244    4.0822 H         1 UNK         0.0634 
    137 H137       33.8369   28.6673    2.9562 H         1 UNK         0.0634 
@<TRIPOS>BOND
     1    1    2 1    
     2    1   72 1    
     3    1   73 1    
     4    1   74 1    
     5    2    3 2    
     6    2    4 am   BACKBONE|DICT|INTERRES
     7    4    5 1    
     8    4   75 1    
     9    5    6 1    
    10    5   35 1    
    11    5   76 1    
    12    6    7 1    
    13    6   77 1    
    14    6   78 1    
    15    7    8 1    
    16    8    9 1    
    17    8   79 1    
    18    8   80 1    
    19    9   10 ar   
    20    9   14 ar   
    21   10   11 ar   
    22   10   81 1    
    23   11   12 ar   
    24   11   71 1    
    25   12   13 ar   
    26   12   82 1    
    27   13   14 ar   
    28   13   15 1    
    29   14   83 1    
    30   15   16 1    
    31   15   84 1    
    32   15   85 1    
    33   16   17 1    
    34   17   18 1    
    35   17   86 1    
    36   17   87 1    
    37   18   19 1    
    38   18   37 1    
    39   18   88 1    
    40   19   20 am   BACKBONE|DICT|INTERRES
    41   19   89 1    
    42   20   21 2    
    43   20   22 1    
    44   22   23 1    
    45   22   24 1    
    46   22   90 1    
    47   23   91 1    
    48   23   92 1    
    49   23   93 1    
    50   24   25 am   BACKBONE|DICT|INTERRES
    51   24   94 1    
    52   25   26 2    
    53   25   27 1    
    54   27   28 1    
    55   27   29 1    
    56   27   95 1    
    57   28   96 1    
    58   28   97 1    
    59   28   98 1    
    60   29   30 am   BACKBONE|DICT|INTERRES
    61   29   99 1    
    62   30   31 2    
    63   30   32 1    
    64   32   33 1    
    65   32   34 1    
    66   32  100 1    
    67   33  101 1    
    68   33  102 1    
    69   33  103 1    
    70   34   35 am   BACKBONE|DICT|INTERRES
    71   34  104 1    
    72   35   36 2    
    73   37   38 2    
    74   37   39 am   BACKBONE|DICT|INTERRES
    75   39   40 1    
    76   39  105 1    
    77   40   41 1    
    78   40   42 1    
    79   40  106 1    
    80   41  107 1    
    81   41  108 1    
    82   41  109 1    
    83   42   43 2    
    84   42   44 am   BACKBONE|DICT|INTERRES
    85   44   45 1    
    86   44  110 1    
    87   45   46 1    
    88   45   47 1    
    89   45  111 1    
    90   46  112 1    
    91   46  113 1    
    92   46  114 1    
    93   47   48 2    
    94   47   49 am   BACKBONE|DICT|INTERRES
    95   49   50 1    
    96   49  115 1    
    97   50   51 1    
    98   50   52 1    
    99   50  116 1    
   100   51  117 1    
   101   51  118 1    
   102   51  119 1    
   103   52   53 2    
   104   52   54 am   BACKBONE|DICT|INTERRES
   105   54   55 1    
   106   54  120 1    
   107   55   56 1    
   108   55   57 1    
   109   55  121 1    
   110   56  122 1    
   111   56  123 1    
   112   56  124 1    
   113   57   58 2    
   114   57   59 am   BACKBONE|DICT|INTERRES
   115   59   60 1    
   116   59  125 1    
   117   60   61 1    
   118   60   62 1    
   119   60  126 1    
   120   61  127 1    
   121   61  128 1    
   122   61  129 1    
   123   62   63 2    
   124   62   64 am   BACKBONE|DICT|INTERRES
   125   64   65 1    
   126   64  130 1    
   127   65   66 1    
   128   65   69 1    
   129   65  131 1    
   130   66   67 am   BACKBONE|DICT|INTERRES
   131   66   68 2    
   132   67  132 1    
   133   67  133 1    
   134   69   70 1    
   135   69  134 1    
   136   69  135 1    
   137   70   71 1    
   138   71  136 1    
   139   71  137 1    
@<TRIPOS>SUBSTRUCTURE
     1 UNK         1 GROUP             0       ****    0 ROOT    
