@<TRIPOS>MOLECULE
3R136
137   139    1
SMALL
USER_CHARGES


@<TRIPOS>ATOM
      1 CA         27.6805   22.2595   -2.1404 C.3       0 UNK        -0.1979 
      2 C          27.4568   22.2922   -0.6362 C.2       0 UNK         0.4864 
      3 O          26.6654   21.5028   -0.1177 O.2       0 UNK        -0.5359 
      4 N          28.1371   23.2097    0.0651 N.am      1 UNK        -0.4318 
      5 CA         28.1045   23.4495    1.5147 C.3       1 UNK         0.0824 
      6 C6         28.5109   22.2042    2.3482 C.3       12 UNK        -0.0944 
      7 S7         29.2447   22.6332    3.9626 S.3       12 UNK        -0.2672 
      8 C8         31.0238   22.3934    3.6483 C.3       12 UNK         0.0333 
      9 C9         31.6541   23.6205    3.0052 C.ar      12 UNK        -0.0807 
     10 C10        32.2594   24.5938    3.8051 C.ar      12 UNK        -0.0894 
     11 C11        32.8574   25.7182    3.2290 C.ar      12 UNK        -0.0804 
     12 C12        32.8236   25.8796    1.8401 C.ar      12 UNK        -0.0824 
     13 C13        32.2162   24.9144    1.0275 C.ar      12 UNK        -0.0762 
     14 C14        31.6502   23.7785    1.6161 C.ar      12 UNK        -0.0782 
     15 C15        32.1831   25.0922   -0.4871 C.3       12 UNK         0.0230 
     16 S16        30.4837   25.1500   -1.1512 S.3       12 UNK        -0.2608 
     17 C17        29.7981   26.6144   -0.3092 C.3       12 UNK        -0.0989 
     18 CA         29.4166   27.7447   -1.2957 C.3       5 UNK         0.0716 
     19 N          28.3152   27.3364   -2.1658 N.am      5 UNK        -0.4135 
     20 C          27.8607   27.9969   -3.2339 C.2       4 UNK         0.5031 
     21 O          28.3817   29.0211   -3.6786 O.2       4 UNK        -0.5229 
     22 CA         26.6097   27.4251   -3.9299 C.3       4 UNK         0.0329 
     23 CB         26.9904   26.2868   -4.8979 C.3       4 UNK        -0.2001 
     24 N          25.5211   27.0190   -3.0229 N.am      4 UNK        -0.4303 
     25 C          25.5035   26.0227   -2.1262 C.2       3 UNK         0.5044 
     26 O          26.4619   25.2776   -1.9001 O.2       3 UNK        -0.5152 
     27 CA         24.1957   25.8279   -1.3493 C.3       3 UNK         0.0319 
     28 CB         23.0955   25.2297   -2.2453 C.3       3 UNK        -0.2001 
     29 N          24.4604   24.9290   -0.2323 N.am      3 UNK        -0.4354 
     30 C          23.7997   24.8819    0.9295 C.2       2 UNK         0.4964 
     31 O          22.8285   25.5921    1.1922 O.2       2 UNK        -0.5047 
     32 CA         24.2941   23.8664    1.9776 C.3       2 UNK         0.0288 
     33 CB         23.3502   22.6541    2.0386 C.3       2 UNK        -0.2113 
     34 N          25.6561   23.3919    1.7183 N.am      2 UNK        -0.4145 
     35 C          26.7750   24.0793    1.9801 C.2       1 UNK         0.5006 
     36 O          26.7828   25.1817    2.5281 O.2       1 UNK        -0.5103 
     37 C          29.0636   29.0155   -0.4985 C.2       5 UNK         0.5055 
     38 O          27.8954   29.2445   -0.1745 O.2       5 UNK        -0.5220 
     39 N          30.1060   29.7691   -0.1235 N.am      6 UNK        -0.4450 
     40 CA         30.0331   30.8805    0.8314 C.3       6 UNK         0.0367 
     41 CB         31.3289   31.6995    0.7346 C.3       6 UNK        -0.1929 
     42 C          29.7827   30.4169    2.2817 C.2       6 UNK         0.5070 
     43 O          29.3015   31.2106    3.0917 O.2       6 UNK        -0.5237 
     44 N          30.0990   29.1444    2.5749 N.am      7 UNK        -0.4739 
     45 CA         29.8549   28.4286    3.8315 C.3       7 UNK         0.0276 
     46 CB         28.3473   28.1265    3.9829 C.3       7 UNK        -0.1927 
     47 C          30.4780   29.1634    5.0306 C.2       7 UNK         0.5013 
     48 O          31.6991   29.2991    5.0692 O.2       7 UNK        -0.5193 
     49 N          29.6468   29.6607    5.9567 N.am      8 UNK        -0.4253 
     50 CA         30.0501   30.4069    7.1535 C.3       8 UNK         0.0242 
     51 CB         28.8047   30.6869    8.0109 C.3       8 UNK        -0.2000 
     52 C          30.8192   31.7151    6.8790 C.2       8 UNK         0.4948 
     53 O          31.5155   32.1902    7.7769 O.2       8 UNK        -0.5275 
     54 N          30.7002   32.2713    5.6639 N.am      9 UNK        -0.4246 
     55 CA         31.4656   33.4379    5.2156 C.3       9 UNK         0.0261 
     56 CB         30.6446   34.2089    4.1677 C.3       9 UNK        -0.1959 
     57 C          32.8695   33.0807    4.6819 C.2       9 UNK         0.5033 
     58 O          33.6182   33.9970    4.3373 O.2       9 UNK        -0.5390 
     59 N          33.2131   31.7876    4.6160 N.am      10 UNK        -0.4215 
     60 CA         34.5164   31.2692    4.2026 C.3       10 UNK         0.0240 
     61 CB         34.4031   30.7224    2.7665 C.3       10 UNK        -0.1982 
     62 C          35.0003   30.2138    5.2126 C.2       10 UNK         0.4970 
     63 O          34.4403   30.1079    6.3061 O.2       10 UNK        -0.4916 
     64 N          36.0558   29.4756    4.8414 N.am      11 UNK        -0.4279 
     65 CA         36.6908   28.4076    5.6374 C.3       11 UNK         0.1003 
     66 C          37.3771   28.8922    6.9538 C.2       11 UNK         0.5709 
     67 N          37.6880   30.1748    7.1026 N.am      11 UNK        -0.7358 
     68 O          37.6706   28.0939    7.8412 O.2       11 UNK        -0.4999 
     69 C69        35.7571   27.1794    5.8531 C.3       12 UNK        -0.0954 
     70 S70        35.3178   26.3381    4.2937 S.3       12 UNK        -0.2268 
     71 C71        33.5532   26.7417    4.1141 C.3       12 UNK         0.0203 
     72 H72        28.0723   21.2889   -2.4427 H         1 UNK         0.0888 
     73 H73        26.7382   22.4279   -2.6612 H         1 UNK         0.0888 
     74 H74        28.3831   23.0279   -2.4634 H         1 UNK         0.0888 
     75 H75        28.7421   23.8413   -0.4466 H         1 UNK         0.3017 
     76 H76        28.8660   24.2139    1.6750 H         1 UNK         0.0873 
     77 H77        29.2308   21.6025    1.7921 H         1 UNK         0.0745 
     78 H78        27.6590   21.5427    2.5162 H         1 UNK         0.0745 
     79 H79        31.1873   21.5093    3.0304 H         1 UNK         0.0705 
     80 H80        31.5154   22.1841    4.5997 H         1 UNK         0.0705 
     81 H81        32.2790   24.4688    4.8794 H         1 UNK         0.1334 
     82 H82        33.2847   26.7504    1.3943 H         1 UNK         0.1417 
     83 H83        31.1914   23.0252    0.9903 H         1 UNK         0.1562 
     84 H84        32.7148   24.2614   -0.9529 H         1 UNK         0.0748 
     85 H85        32.7102   25.9994   -0.7867 H         1 UNK         0.0748 
     86 H86        30.5271   26.9696    0.4193 H         1 UNK         0.0940 
     87 H87        28.9272   26.3058    0.2730 H         1 UNK         0.0940 
     88 H88        30.2761   27.9682   -1.9316 H         1 UNK         0.0703 
     89 H89        27.8045   26.4995   -1.8957 H         1 UNK         0.3081 
     90 H90        26.1965   28.2358   -4.5325 H         1 UNK         0.0719 
     91 H91        27.7221   26.6293   -5.6308 H         1 UNK         0.0809 
     92 H92        27.4302   25.4350   -4.3780 H         1 UNK         0.0809 
     93 H93        26.1215   25.9295   -5.4505 H         1 UNK         0.0809 
     94 H94        24.6864   27.5849   -3.0956 H         1 UNK         0.2990 
     95 H95        23.8770   26.7996   -0.9658 H         1 UNK         0.0690 
     96 H96        22.8689   25.8850   -3.0870 H         1 UNK         0.0788 
     97 H97        22.1674   25.0864   -1.6915 H         1 UNK         0.0788 
     98 H98        23.3928   24.2629   -2.6537 H         1 UNK         0.0788 
     99 H99        25.2882   24.3597   -0.3553 H         1 UNK         0.2993 
    100 H100       24.2776   24.3660    2.9488 H         1 UNK         0.0949 
    101 H101       22.3273   22.9649    2.2564 H         1 UNK         0.0767 
    102 H102       23.3326   22.1094    1.0936 H         1 UNK         0.0767 
    103 H103       23.6499   21.9578    2.8222 H         1 UNK         0.0767 
    104 H104       25.7600   22.5184    1.2061 H         1 UNK         0.3013 
    105 H105       31.0277   29.5257   -0.4581 H         1 UNK         0.3121 
    106 H106       29.1971   31.5248    0.5503 H         1 UNK         0.0774 
    107 H107       31.3562   32.4968    1.4769 H         1 UNK         0.0815 
    108 H108       32.2059   31.0742    0.8931 H         1 UNK         0.0815 
    109 H109       31.4266   32.1687   -0.2445 H         1 UNK         0.0815 
    110 H110       30.5480   28.6050    1.8519 H         1 UNK         0.2987 
    111 H111       30.3773   27.4731    3.7572 H         1 UNK         0.0949 
    112 H112       28.1482   27.5338    4.8768 H         1 UNK         0.0806 
    113 H113       27.9837   27.5476    3.1338 H         1 UNK         0.0806 
    114 H114       27.7440   29.0335    4.0363 H         1 UNK         0.0806 
    115 H115       28.6550   29.5320    5.8182 H         1 UNK         0.3010 
    116 H116       30.7210   29.7615    7.7246 H         1 UNK         0.0829 
    117 H117       28.3068   29.7625    8.3045 H         1 UNK         0.0813 
    118 H118       29.0719   31.2127    8.9289 H         1 UNK         0.0813 
    119 H119       28.0809   31.3067    7.4800 H         1 UNK         0.0813 
    120 H120       30.1158   31.8184    4.9677 H         1 UNK         0.3038 
    121 H121       31.6174   34.1074    6.0650 H         1 UNK         0.0769 
    122 H122       31.1712   35.1049    3.8364 H         1 UNK         0.0811 
    123 H123       29.6869   34.5316    4.5763 H         1 UNK         0.0811 
    124 H124       30.4422   33.6054    3.2847 H         1 UNK         0.0811 
    125 H125       32.5758   31.0786    4.9724 H         1 UNK         0.3204 
    126 H126       35.2603   32.0683    4.2155 H         1 UNK         0.0748 
    127 H127       35.3448   30.3090    2.4054 H         1 UNK         0.0771 
    128 H128       33.6462   29.9408    2.6927 H         1 UNK         0.0771 
    129 H129       34.1324   31.5212    2.0768 H         1 UNK         0.0771 
    130 H130       36.4729   29.6458    3.9383 H         1 UNK         0.2980 
    131 H131       37.5269   28.0623    5.0284 H         1 UNK         0.0545 
    132 H132       37.4686   30.8424    6.3815 H         1 UNK         0.3459 
    133 H133       38.1420   30.4765    7.9502 H         1 UNK         0.3459 
    134 H134       36.2512   26.4267    6.4695 H         1 UNK         0.0616 
    135 H135       34.8578   27.4640    6.4003 H         1 UNK         0.0616 
    136 H136       33.0726   26.7688    5.0931 H         1 UNK         0.0634 
    137 H137       33.4540   27.7421    3.6926 H         1 UNK         0.0634 
@<TRIPOS>BOND
     1    1    2 1    
     2    1   72 1    
     3    1   73 1    
     4    1   74 1    
     5    2    3 2    
     6    2    4 am   BACKBONE|DICT|INTERRES
     7    4    5 1    
     8    4   75 1    
     9    5    6 1    
    10    5   35 1    
    11    5   76 1    
    12    6    7 1    
    13    6   77 1    
    14    6   78 1    
    15    7    8 1    
    16    8    9 1    
    17    8   79 1    
    18    8   80 1    
    19    9   10 ar   
    20    9   14 ar   
    21   10   11 ar   
    22   10   81 1    
    23   11   12 ar   
    24   11   71 1    
    25   12   13 ar   
    26   12   82 1    
    27   13   14 ar   
    28   13   15 1    
    29   14   83 1    
    30   15   16 1    
    31   15   84 1    
    32   15   85 1    
    33   16   17 1    
    34   17   18 1    
    35   17   86 1    
    36   17   87 1    
    37   18   19 1    
    38   18   37 1    
    39   18   88 1    
    40   19   20 am   BACKBONE|DICT|INTERRES
    41   19   89 1    
    42   20   21 2    
    43   20   22 1    
    44   22   23 1    
    45   22   24 1    
    46   22   90 1    
    47   23   91 1    
    48   23   92 1    
    49   23   93 1    
    50   24   25 am   BACKBONE|DICT|INTERRES
    51   24   94 1    
    52   25   26 2    
    53   25   27 1    
    54   27   28 1    
    55   27   29 1    
    56   27   95 1    
    57   28   96 1    
    58   28   97 1    
    59   28   98 1    
    60   29   30 am   BACKBONE|DICT|INTERRES
    61   29   99 1    
    62   30   31 2    
    63   30   32 1    
    64   32   33 1    
    65   32   34 1    
    66   32  100 1    
    67   33  101 1    
    68   33  102 1    
    69   33  103 1    
    70   34   35 am   BACKBONE|DICT|INTERRES
    71   34  104 1    
    72   35   36 2    
    73   37   38 2    
    74   37   39 am   BACKBONE|DICT|INTERRES
    75   39   40 1    
    76   39  105 1    
    77   40   41 1    
    78   40   42 1    
    79   40  106 1    
    80   41  107 1    
    81   41  108 1    
    82   41  109 1    
    83   42   43 2    
    84   42   44 am   BACKBONE|DICT|INTERRES
    85   44   45 1    
    86   44  110 1    
    87   45   46 1    
    88   45   47 1    
    89   45  111 1    
    90   46  112 1    
    91   46  113 1    
    92   46  114 1    
    93   47   48 2    
    94   47   49 am   BACKBONE|DICT|INTERRES
    95   49   50 1    
    96   49  115 1    
    97   50   51 1    
    98   50   52 1    
    99   50  116 1    
   100   51  117 1    
   101   51  118 1    
   102   51  119 1    
   103   52   53 2    
   104   52   54 am   BACKBONE|DICT|INTERRES
   105   54   55 1    
   106   54  120 1    
   107   55   56 1    
   108   55   57 1    
   109   55  121 1    
   110   56  122 1    
   111   56  123 1    
   112   56  124 1    
   113   57   58 2    
   114   57   59 am   BACKBONE|DICT|INTERRES
   115   59   60 1    
   116   59  125 1    
   117   60   61 1    
   118   60   62 1    
   119   60  126 1    
   120   61  127 1    
   121   61  128 1    
   122   61  129 1    
   123   62   63 2    
   124   62   64 am   BACKBONE|DICT|INTERRES
   125   64   65 1    
   126   64  130 1    
   127   65   66 1    
   128   65   69 1    
   129   65  131 1    
   130   66   67 am   BACKBONE|DICT|INTERRES
   131   66   68 2    
   132   67  132 1    
   133   67  133 1    
   134   69   70 1    
   135   69  134 1    
   136   69  135 1    
   137   70   71 1    
   138   71  136 1    
   139   71  137 1    
@<TRIPOS>SUBSTRUCTURE
     1 UNK         1 GROUP             0       ****    0 ROOT    
