@<TRIPOS>MOLECULE
3R136
137   139    1
SMALL
USER_CHARGES


@<TRIPOS>ATOM
      1 CA         30.6059   24.6006   -4.2884 C.3       0 UNK        -0.1979 
      2 C          29.4653   24.8686   -3.3180 C.2       0 UNK         0.4864 
      3 O          28.5888   25.6806   -3.6155 O.2       0 UNK        -0.5359 
      4 N          29.4755   24.1954   -2.1592 N.am      1 UNK        -0.4318 
      5 CA         28.4735   24.3311   -1.0919 C.3       1 UNK         0.0824 
      6 C6         28.9301   23.6730    0.2393 C.3       12 UNK        -0.0944 
      7 S7         30.6534   24.0737    0.6889 S.3       12 UNK        -0.2672 
      8 C8         30.6615   23.8311    2.4942 C.3       12 UNK         0.0333 
      9 C9         30.4147   25.1335    3.2413 C.ar      12 UNK        -0.0807 
     10 C10        31.2958   26.2062    3.0757 C.ar      12 UNK        -0.0894 
     11 C11        31.0846   27.4132    3.7450 C.ar      12 UNK        -0.0804 
     12 C12        29.9884   27.5388    4.6021 C.ar      12 UNK        -0.0824 
     13 C13        29.1109   26.4657    4.7965 C.ar      12 UNK        -0.0762 
     14 C14        29.3314   25.2633    4.1153 C.ar      12 UNK        -0.0782 
     15 C15        27.9270   26.6129    5.7468 C.3       12 UNK         0.0230 
     16 S16        26.3135   26.3627    4.9313 S.3       12 UNK        -0.2608 
     17 C17        26.4422   27.4695    3.4886 C.3       12 UNK        -0.0989 
     18 CA         26.5698   26.6585    2.1722 C.3       5 UNK         0.0716 
     19 N          25.2706   26.1785    1.7135 N.am      5 UNK        -0.4135 
     20 C          24.8279   24.9192    1.7725 C.2       4 UNK         0.5031 
     21 O          25.4752   23.9837    2.2483 O.2       4 UNK        -0.5229 
     22 CA         23.4162   24.6513    1.2225 C.3       4 UNK         0.0329 
     23 CB         22.7886   25.8393    0.4612 C.3       4 UNK        -0.2001 
     24 N          23.4574   23.4931    0.3333 N.am      4 UNK        -0.4303 
     25 C          22.6895   22.4008    0.4445 C.2       3 UNK         0.5044 
     26 O          21.8670   22.2383    1.3478 O.2       3 UNK        -0.5152 
     27 CA         22.8179   21.3103   -0.6402 C.3       3 UNK         0.0319 
     28 CB         21.4563   21.0370   -1.3043 C.3       3 UNK        -0.2001 
     29 N          23.7839   21.6471   -1.6886 N.am      3 UNK        -0.4354 
     30 C          25.0982   21.4036   -1.6301 C.2       2 UNK         0.4964 
     31 O          25.6417   20.8060   -0.6995 O.2       2 UNK        -0.5047 
     32 CA         25.9644   21.9236   -2.7954 C.3       2 UNK         0.0288 
     33 CB         25.1924   22.7472   -3.8537 C.3       2 UNK        -0.2113 
     34 N          27.1191   22.6809   -2.3020 N.am      2 UNK        -0.4145 
     35 C          27.0992   23.7717   -1.5171 C.2       1 UNK         0.5006 
     36 O          26.0680   24.3291   -1.1371 O.2       1 UNK        -0.5103 
     37 C          27.1731   27.5271    1.0612 C.2       5 UNK         0.5055 
     38 O          26.4315   28.1789    0.3200 O.2       5 UNK        -0.5220 
     39 N          28.5093   27.5496    1.0040 N.am      6 UNK        -0.4450 
     40 CA         29.2903   28.5032    0.2164 C.3       6 UNK         0.0367 
     41 CB         30.5680   27.8030   -0.2854 C.3       6 UNK        -0.1929 
     42 C          29.6076   29.7451    1.0734 C.2       6 UNK         0.5070 
     43 O          29.0925   29.8790    2.1865 O.2       6 UNK        -0.5237 
     44 N          30.4622   30.6314    0.5542 N.am      7 UNK        -0.4739 
     45 CA         30.9817   31.7943    1.2695 C.3       7 UNK         0.0276 
     46 CB         30.3273   33.0734    0.7205 C.3       7 UNK        -0.1927 
     47 C          32.5021   31.8332    1.0907 C.2       7 UNK         0.5013 
     48 O          32.9804   31.7086   -0.0394 O.2       7 UNK        -0.5193 
     49 N          33.2232   32.0210    2.1988 N.am      8 UNK        -0.4253 
     50 CA         34.6717   32.1773    2.2799 C.3       8 UNK         0.0242 
     51 CB         35.3882   30.8387    2.0128 C.3       8 UNK        -0.2000 
     52 C          34.9928   32.6880    3.6873 C.2       8 UNK         0.4948 
     53 O          34.2405   32.3960    4.6210 O.2       8 UNK        -0.5275 
     54 N          36.1142   33.4070    3.8309 N.am      9 UNK        -0.4246 
     55 CA         36.5787   33.9747    5.1047 C.3       9 UNK         0.0261 
     56 CB         37.8032   34.8690    4.8520 C.3       9 UNK        -0.1959 
     57 C          36.8960   32.9165    6.1776 C.2       9 UNK         0.5033 
     58 O          36.7070   33.1803    7.3659 O.2       9 UNK        -0.5390 
     59 N          37.3353   31.7293    5.7374 N.am      10 UNK        -0.4215 
     60 CA         37.6062   30.5628    6.5806 C.3       10 UNK         0.0240 
     61 CB         38.3385   29.5013    5.7430 C.3       10 UNK        -0.1982 
     62 C          36.3495   29.9548    7.2331 C.2       10 UNK         0.4970 
     63 O          36.4855   29.2558    8.2382 O.2       10 UNK        -0.4916 
     64 N          35.1648   30.2155    6.6637 N.am      11 UNK        -0.4279 
     65 CA         33.8721   29.7300    7.1719 C.3       11 UNK         0.1003 
     66 C          33.2966   30.5814    8.3414 C.2       11 UNK         0.5709 
     67 N          33.8978   31.7072    8.7119 N.am      11 UNK        -0.7358 
     68 O          32.2893   30.2047    8.9360 O.2       11 UNK        -0.4999 
     69 C69        32.8305   29.5557    6.0344 C.3       12 UNK        -0.0954 
     70 S70        33.4454   28.5173    4.6669 S.3       12 UNK        -0.2268 
     71 C71        32.0367   28.5788    3.5223 C.3       12 UNK         0.0203 
     72 H72        31.3134   23.8707   -3.8952 H         1 UNK         0.0888 
     73 H73        30.2144   24.2199   -5.2314 H         1 UNK         0.0888 
     74 H74        31.1492   25.5230   -4.4918 H         1 UNK         0.0888 
     75 H75        30.2437   23.5723   -1.9521 H         1 UNK         0.3017 
     76 H76        28.3392   25.3991   -0.9113 H         1 UNK         0.0873 
     77 H77        28.2684   23.9794    1.0517 H         1 UNK         0.0745 
     78 H78        28.8559   22.5850    0.1813 H         1 UNK         0.0745 
     79 H79        31.6372   23.4421    2.7882 H         1 UNK         0.0705 
     80 H80        29.9322   23.0675    2.7693 H         1 UNK         0.0705 
     81 H81        32.1453   26.1021    2.4142 H         1 UNK         0.1334 
     82 H82        29.8203   28.4753    5.1161 H         1 UNK         0.1417 
     83 H83        28.6505   24.4351    4.2616 H         1 UNK         0.1562 
     84 H84        27.9281   27.5982    6.2158 H         1 UNK         0.0748 
     85 H85        28.0288   25.8896    6.5569 H         1 UNK         0.0748 
     86 H86        27.2900   28.1425    3.6330 H         1 UNK         0.0940 
     87 H87        25.5642   28.1176    3.4622 H         1 UNK         0.0940 
     88 H88        27.2440   25.8133    2.3209 H         1 UNK         0.0703 
     89 H89        24.7188   26.8698    1.2241 H         1 UNK         0.3081 
     90 H90        22.7915   24.4423    2.0931 H         1 UNK         0.0719 
     91 H91        23.3922   26.1362   -0.3981 H         1 UNK         0.0809 
     92 H92        21.7963   25.5819    0.0901 H         1 UNK         0.0809 
     93 H93        22.6643   26.7094    1.1072 H         1 UNK         0.0809 
     94 H94        24.1768   23.5219   -0.3806 H         1 UNK         0.2990 
     95 H95        23.1370   20.3946   -0.1379 H         1 UNK         0.0690 
     96 H96        21.5293   20.2421   -2.0468 H         1 UNK         0.0788 
     97 H97        21.0631   21.9256   -1.7999 H         1 UNK         0.0788 
     98 H98        20.7159   20.7201   -0.5684 H         1 UNK         0.0788 
     99 H99        23.4272   22.1575   -2.4842 H         1 UNK         0.2993 
    100 H100       26.3629   21.0372   -3.2914 H         1 UNK         0.0949 
    101 H101       24.4053   22.1556   -4.3232 H         1 UNK         0.0767 
    102 H102       24.7345   23.6417   -3.4291 H         1 UNK         0.0767 
    103 H103       25.8591   23.0727   -4.6526 H         1 UNK         0.0767 
    104 H104       28.0232   22.2960   -2.5362 H         1 UNK         0.3013 
    105 H105       29.0291   27.0381    1.7047 H         1 UNK         0.3121 
    106 H106       28.7131   28.8320   -0.6505 H         1 UNK         0.0774 
    107 H107       31.1310   28.4384   -0.9694 H         1 UNK         0.0815 
    108 H108       31.2339   27.5348    0.5338 H         1 UNK         0.0815 
    109 H109       30.3304   26.8898   -0.8305 H         1 UNK         0.0815 
    110 H110       30.8930   30.4502   -0.3431 H         1 UNK         0.2987 
    111 H111       30.7593   31.7216    2.3368 H         1 UNK         0.0949 
    112 H112       30.5230   33.2029   -0.3448 H         1 UNK         0.0806 
    113 H113       29.2465   33.0555    0.8623 H         1 UNK         0.0806 
    114 H114       30.7075   33.9578    1.2333 H         1 UNK         0.0806 
    115 H115       32.7652   32.1240    3.0972 H         1 UNK         0.3010 
    116 H116       34.9876   32.9228    1.5471 H         1 UNK         0.0829 
    117 H117       36.4703   30.9500    2.0884 H         1 UNK         0.0813 
    118 H118       35.0884   30.0722    2.7274 H         1 UNK         0.0813 
    119 H119       35.1762   30.4612    1.0126 H         1 UNK         0.0813 
    120 H120       36.6791   33.5999    3.0155 H         1 UNK         0.3038 
    121 H121       35.7747   34.6009    5.4979 H         1 UNK         0.0769 
    122 H122       38.1539   35.3212    5.7810 H         1 UNK         0.0811 
    123 H123       37.5660   35.6842    4.1681 H         1 UNK         0.0811 
    124 H124       38.6364   34.3061    4.4295 H         1 UNK         0.0811 
    125 H125       37.4634   31.6112    4.7432 H         1 UNK         0.3204 
    126 H126       38.2691   30.8808    7.3882 H         1 UNK         0.0748 
    127 H127       38.5879   28.6290    6.3491 H         1 UNK         0.0771 
    128 H128       37.7277   29.1535    4.9085 H         1 UNK         0.0771 
    129 H129       39.2738   29.8889    5.3384 H         1 UNK         0.0771 
    130 H130       35.1132   30.8327    5.8632 H         1 UNK         0.2980 
    131 H131       34.0375   28.7370    7.5941 H         1 UNK         0.0545 
    132 H132       34.7282   32.0290    8.2359 H         1 UNK         0.3459 
    133 H133       33.5145   32.2423    9.4747 H         1 UNK         0.3459 
    134 H134       31.9184   29.0980    6.4210 H         1 UNK         0.0616 
    135 H135       32.5435   30.5279    5.6304 H         1 UNK         0.0616 
    136 H136       32.4192   28.5557    2.5010 H         1 UNK         0.0634 
    137 H137       31.5116   29.5292    3.6251 H         1 UNK         0.0634 
@<TRIPOS>BOND
     1    1    2 1    
     2    1   72 1    
     3    1   73 1    
     4    1   74 1    
     5    2    3 2    
     6    2    4 am   BACKBONE|DICT|INTERRES
     7    4    5 1    
     8    4   75 1    
     9    5    6 1    
    10    5   35 1    
    11    5   76 1    
    12    6    7 1    
    13    6   77 1    
    14    6   78 1    
    15    7    8 1    
    16    8    9 1    
    17    8   79 1    
    18    8   80 1    
    19    9   10 ar   
    20    9   14 ar   
    21   10   11 ar   
    22   10   81 1    
    23   11   12 ar   
    24   11   71 1    
    25   12   13 ar   
    26   12   82 1    
    27   13   14 ar   
    28   13   15 1    
    29   14   83 1    
    30   15   16 1    
    31   15   84 1    
    32   15   85 1    
    33   16   17 1    
    34   17   18 1    
    35   17   86 1    
    36   17   87 1    
    37   18   19 1    
    38   18   37 1    
    39   18   88 1    
    40   19   20 am   BACKBONE|DICT|INTERRES
    41   19   89 1    
    42   20   21 2    
    43   20   22 1    
    44   22   23 1    
    45   22   24 1    
    46   22   90 1    
    47   23   91 1    
    48   23   92 1    
    49   23   93 1    
    50   24   25 am   BACKBONE|DICT|INTERRES
    51   24   94 1    
    52   25   26 2    
    53   25   27 1    
    54   27   28 1    
    55   27   29 1    
    56   27   95 1    
    57   28   96 1    
    58   28   97 1    
    59   28   98 1    
    60   29   30 am   BACKBONE|DICT|INTERRES
    61   29   99 1    
    62   30   31 2    
    63   30   32 1    
    64   32   33 1    
    65   32   34 1    
    66   32  100 1    
    67   33  101 1    
    68   33  102 1    
    69   33  103 1    
    70   34   35 am   BACKBONE|DICT|INTERRES
    71   34  104 1    
    72   35   36 2    
    73   37   38 2    
    74   37   39 am   BACKBONE|DICT|INTERRES
    75   39   40 1    
    76   39  105 1    
    77   40   41 1    
    78   40   42 1    
    79   40  106 1    
    80   41  107 1    
    81   41  108 1    
    82   41  109 1    
    83   42   43 2    
    84   42   44 am   BACKBONE|DICT|INTERRES
    85   44   45 1    
    86   44  110 1    
    87   45   46 1    
    88   45   47 1    
    89   45  111 1    
    90   46  112 1    
    91   46  113 1    
    92   46  114 1    
    93   47   48 2    
    94   47   49 am   BACKBONE|DICT|INTERRES
    95   49   50 1    
    96   49  115 1    
    97   50   51 1    
    98   50   52 1    
    99   50  116 1    
   100   51  117 1    
   101   51  118 1    
   102   51  119 1    
   103   52   53 2    
   104   52   54 am   BACKBONE|DICT|INTERRES
   105   54   55 1    
   106   54  120 1    
   107   55   56 1    
   108   55   57 1    
   109   55  121 1    
   110   56  122 1    
   111   56  123 1    
   112   56  124 1    
   113   57   58 2    
   114   57   59 am   BACKBONE|DICT|INTERRES
   115   59   60 1    
   116   59  125 1    
   117   60   61 1    
   118   60   62 1    
   119   60  126 1    
   120   61  127 1    
   121   61  128 1    
   122   61  129 1    
   123   62   63 2    
   124   62   64 am   BACKBONE|DICT|INTERRES
   125   64   65 1    
   126   64  130 1    
   127   65   66 1    
   128   65   69 1    
   129   65  131 1    
   130   66   67 am   BACKBONE|DICT|INTERRES
   131   66   68 2    
   132   67  132 1    
   133   67  133 1    
   134   69   70 1    
   135   69  134 1    
   136   69  135 1    
   137   70   71 1    
   138   71  136 1    
   139   71  137 1    
@<TRIPOS>SUBSTRUCTURE
     1 UNK         1 GROUP             0       ****    0 ROOT    
