@<TRIPOS>MOLECULE
3R136
137   139    1
SMALL
USER_CHARGES


@<TRIPOS>ATOM
      1 CA         31.1644   25.6059   -5.4938 C.3       0 UNK        -0.1979 
      2 C          30.4586   26.1471   -4.2591 C.2       0 UNK         0.4864 
      3 O          29.9150   27.2521   -4.3011 O.2       0 UNK        -0.5359 
      4 N          30.4716   25.3815   -3.1609 N.am      1 UNK        -0.4318 
      5 CA         29.8126   25.7185   -1.8939 C.3       1 UNK         0.0824 
      6 C6         30.2897   24.8170   -0.7255 C.3       12 UNK        -0.0944 
      7 S7         32.1022   24.7856   -0.5489 S.3       12 UNK        -0.2672 
      8 C8         32.3205   23.3642    0.5707 C.3       12 UNK         0.0333 
      9 C9         32.0868   23.7305    2.0308 C.ar      12 UNK        -0.0807 
     10 C10        32.8660   24.7259    2.6267 C.ar      12 UNK        -0.0894 
     11 C11        32.7075   25.0446    3.9764 C.ar      12 UNK        -0.0804 
     12 C12        31.7661   24.3490    4.7404 C.ar      12 UNK        -0.0824 
     13 C13        30.9842   23.3421    4.1620 C.ar      12 UNK        -0.0762 
     14 C14        31.1424   23.0435    2.8031 C.ar      12 UNK        -0.0782 
     15 C15        30.0186   22.5357    5.0253 C.3       12 UNK         0.0230 
     16 S16        28.2642   22.9127    4.7037 S.3       12 UNK        -0.2608 
     17 C17        28.1625   24.6816    5.1363 C.3       12 UNK        -0.0989 
     18 CA         27.6965   25.5105    3.9099 C.3       5 UNK         0.0716 
     19 N          26.2807   25.3381    3.5632 N.am      5 UNK        -0.4135 
     20 C          25.2149   25.6478    4.3204 C.2       4 UNK         0.5031 
     21 O          25.2941   26.0459    5.4832 O.2       4 UNK        -0.5229 
     22 CA         23.8110   25.5307    3.6873 C.3       4 UNK         0.0329 
     23 CB         23.1069   26.8994    3.6805 C.3       4 UNK        -0.2001 
     24 N          23.8181   25.0103    2.3195 N.am      4 UNK        -0.4303 
     25 C          23.9604   23.7234    1.9759 C.2       3 UNK         0.5044 
     26 O          24.0072   22.7986    2.7869 O.2       3 UNK        -0.5152 
     27 CA         24.1089   23.4210    0.4709 C.3       3 UNK         0.0319 
     28 CB         22.7716   22.9373   -0.1130 C.3       3 UNK        -0.2001 
     29 N          24.6070   24.5483   -0.3326 N.am      3 UNK        -0.4354 
     30 C          25.7917   25.1519   -0.1621 C.2       2 UNK         0.4964 
     31 O          26.5863   24.8609    0.7359 O.2       2 UNK        -0.5047 
     32 CA         26.1090   26.3274   -1.0993 C.3       2 UNK         0.0288 
     33 CB         25.5662   27.6364   -0.5044 C.3       2 UNK        -0.2113 
     34 N          27.5546   26.4498   -1.2867 N.am      2 UNK        -0.4145 
     35 C          28.2817   25.6105   -2.0323 C.2       1 UNK         0.5006 
     36 O          27.7902   24.7424   -2.7613 O.2       1 UNK        -0.5103 
     37 C          28.0369   27.0079    4.0029 C.2       5 UNK         0.5055 
     38 O          28.3703   27.5180    5.0733 O.2       5 UNK        -0.5220 
     39 N          27.9372   27.6751    2.8499 N.am      6 UNK        -0.4450 
     40 CA         28.4264   29.0246    2.6013 C.3       6 UNK         0.0367 
     41 CB         27.2418   29.9928    2.4518 C.3       6 UNK        -0.1929 
     42 C          29.2586   28.9586    1.3171 C.2       6 UNK         0.5070 
     43 O          28.9580   28.1435    0.4398 O.2       6 UNK        -0.5237 
     44 N          30.2826   29.8068    1.2283 N.am      7 UNK        -0.4739 
     45 CA         31.2353   29.8801    0.1242 C.3       7 UNK         0.0276 
     46 CB         32.2408   28.7101    0.2229 C.3       7 UNK        -0.1927 
     47 C          31.9161   31.2579    0.1700 C.2       7 UNK         0.5013 
     48 O          31.4193   32.1615    0.8485 O.2       7 UNK        -0.5193 
     49 N          33.0456   31.4010   -0.5376 N.am      8 UNK        -0.4253 
     50 CA         33.9090   32.5868   -0.4772 C.3       8 UNK         0.0242 
     51 CB         34.9079   32.5505   -1.6456 C.3       8 UNK        -0.2000 
     52 C          34.6532   32.7197    0.8668 C.2       8 UNK         0.4948 
     53 O          34.9754   33.8381    1.2709 O.2       8 UNK        -0.5275 
     54 N          34.9097   31.5837    1.5294 N.am      9 UNK        -0.4246 
     55 CA         35.4563   31.5039    2.8832 C.3       9 UNK         0.0261 
     56 CB         36.1238   30.1300    3.0646 C.3       9 UNK        -0.1959 
     57 C          34.3510   31.7085    3.9326 C.2       9 UNK         0.5033 
     58 O          33.1716   31.4870    3.6439 O.2       9 UNK        -0.5390 
     59 N          34.7535   32.0851    5.1529 N.am      10 UNK        -0.4215 
     60 CA         33.8757   32.2998    6.3087 C.3       10 UNK         0.0240 
     61 CB         34.6055   33.1948    7.3287 C.3       10 UNK        -0.1982 
     62 C          33.3856   30.9729    6.9266 C.2       10 UNK         0.4970 
     63 O          33.6959   30.6747    8.0815 O.2       10 UNK        -0.4916 
     64 N          32.6440   30.1935    6.1333 N.am      11 UNK        -0.4279 
     65 CA         32.0778   28.8861    6.5017 C.3       11 UNK         0.1003 
     66 C          30.9091   28.9458    7.5277 C.2       11 UNK         0.5709 
     67 N          30.2854   30.0952    7.7609 N.am      11 UNK        -0.7358 
     68 O          30.5792   27.9327    8.1397 O.2       11 UNK        -0.4999 
     69 C69        31.6704   28.0721    5.2470 C.3       12 UNK        -0.0954 
     70 S70        33.0693   27.7871    4.1152 S.3       12 UNK        -0.2268 
     71 C71        33.5876   26.1147    4.6045 C.3       12 UNK         0.0203 
     72 H72        31.9538   26.2896   -5.8049 H         1 UNK         0.0888 
     73 H73        31.6141   24.6299   -5.3114 H         1 UNK         0.0888 
     74 H74        30.4566   25.5047   -6.3161 H         1 UNK         0.0888 
     75 H75        30.9278   24.4813   -3.1840 H         1 UNK         0.3017 
     76 H76        30.0653   26.7541   -1.6542 H         1 UNK         0.0873 
     77 H77        29.8638   25.1608    0.2199 H         1 UNK         0.0745 
     78 H78        29.9393   23.7923   -0.8664 H         1 UNK         0.0745 
     79 H79        33.3427   22.9977    0.4671 H         1 UNK         0.0705 
     80 H80        31.6713   22.5449    0.2583 H         1 UNK         0.0705 
     81 H81        33.6037   25.2535    2.0371 H         1 UNK         0.1334 
     82 H82        31.6565   24.5789    5.7915 H         1 UNK         0.1417 
     83 H83        30.5467   22.2583    2.3575 H         1 UNK         0.1562 
     84 H84        30.2240   22.6943    6.0853 H         1 UNK         0.0748 
     85 H85        30.1840   21.4726    4.8448 H         1 UNK         0.0748 
     86 H86        29.1391   25.0204    5.4836 H         1 UNK         0.0940 
     87 H87        27.4939   24.8076    5.9880 H         1 UNK         0.0940 
     88 H88        28.2604   25.1474    3.0478 H         1 UNK         0.0703 
     89 H89        26.1233   25.0289    2.6089 H         1 UNK         0.3081 
     90 H90        23.2305   24.8512    4.3149 H         1 UNK         0.0719 
     91 H91        23.6524   27.6312    3.0830 H         1 UNK         0.0809 
     92 H92        22.0953   26.8244    3.2810 H         1 UNK         0.0809 
     93 H93        23.0224   27.3029    4.6905 H         1 UNK         0.0809 
     94 H94        23.7747   25.6927    1.5771 H         1 UNK         0.2990 
     95 H95        24.8349   22.6104    0.3788 H         1 UNK         0.0690 
     96 H96        22.8816   22.6211   -1.1505 H         1 UNK         0.0788 
     97 H97        22.0094   23.7168   -0.0768 H         1 UNK         0.0788 
     98 H98        22.3886   22.0812    0.4445 H         1 UNK         0.0788 
     99 H99        24.0049   24.8646   -1.0800 H         1 UNK         0.2993 
    100 H100       25.6411   26.1535   -2.0709 H         1 UNK         0.0949 
    101 H101       25.8405   28.4959   -1.1166 H         1 UNK         0.0767 
    102 H102       24.4775   27.6178   -0.4416 H         1 UNK         0.0767 
    103 H103       25.9478   27.8063    0.5021 H         1 UNK         0.0767 
    104 H104       28.0432   27.1078   -0.6790 H         1 UNK         0.3013 
    105 H105       27.7205   27.1578    2.0072 H         1 UNK         0.3121 
    106 H106       29.0642   29.3588    3.4217 H         1 UNK         0.0774 
    107 H107       27.5933   31.0162    2.3158 H         1 UNK         0.0815 
    108 H108       26.6182   29.7484    1.5922 H         1 UNK         0.0815 
    109 H109       26.6089   29.9821    3.3392 H         1 UNK         0.0815 
    110 H110       30.4289   30.5099    1.9432 H         1 UNK         0.2987 
    111 H111       30.6898   29.8126   -0.8196 H         1 UNK         0.0949 
    112 H112       32.8986   28.6667   -0.6452 H         1 UNK         0.0806 
    113 H113       32.8658   28.7925    1.1130 H         1 UNK         0.0806 
    114 H114       31.7303   27.7482    0.2723 H         1 UNK         0.0806 
    115 H115       33.3733   30.6267   -1.0970 H         1 UNK         0.3010 
    116 H116       33.2808   33.4729   -0.5926 H         1 UNK         0.0829 
    117 H117       34.3944   32.5306   -2.6070 H         1 UNK         0.0813 
    118 H118       35.5456   33.4357   -1.6396 H         1 UNK         0.0813 
    119 H119       35.5613   31.6787   -1.5938 H         1 UNK         0.0813 
    120 H120       34.5624   30.7216    1.1386 H         1 UNK         0.3038 
    121 H121       36.2109   32.2832    3.0111 H         1 UNK         0.0769 
    122 H122       36.5542   30.0270    4.0615 H         1 UNK         0.0811 
    123 H123       36.9330   29.9856    2.3485 H         1 UNK         0.0811 
    124 H124       35.4119   29.3145    2.9328 H         1 UNK         0.0811 
    125 H125       35.7431   32.2036    5.3181 H         1 UNK         0.3204 
    126 H126       32.9890   32.8418    5.9724 H         1 UNK         0.0748 
    127 H127       33.9694   33.4052    8.1897 H         1 UNK         0.0771 
    128 H128       35.5160   32.7247    7.7027 H         1 UNK         0.0771 
    129 H129       34.8790   34.1547    6.8901 H         1 UNK         0.0771 
    130 H130       32.5018   30.4973    5.1742 H         1 UNK         0.2980 
    131 H131       32.8730   28.3295    7.0013 H         1 UNK         0.0545 
    132 H132       29.5349   30.1209    8.4327 H         1 UNK         0.3459 
    133 H133       30.5507   30.9307    7.2657 H         1 UNK         0.3459 
    134 H134       31.2343   27.1117    5.5260 H         1 UNK         0.0616 
    135 H135       30.8976   28.6034    4.6916 H         1 UNK         0.0616 
    136 H136       33.5910   26.0339    5.6927 H         1 UNK         0.0634 
    137 H137       34.6196   25.9632    4.2848 H         1 UNK         0.0634 
@<TRIPOS>BOND
     1    1    2 1    
     2    1   72 1    
     3    1   73 1    
     4    1   74 1    
     5    2    3 2    
     6    2    4 am   BACKBONE|DICT|INTERRES
     7    4    5 1    
     8    4   75 1    
     9    5    6 1    
    10    5   35 1    
    11    5   76 1    
    12    6    7 1    
    13    6   77 1    
    14    6   78 1    
    15    7    8 1    
    16    8    9 1    
    17    8   79 1    
    18    8   80 1    
    19    9   10 ar   
    20    9   14 ar   
    21   10   11 ar   
    22   10   81 1    
    23   11   12 ar   
    24   11   71 1    
    25   12   13 ar   
    26   12   82 1    
    27   13   14 ar   
    28   13   15 1    
    29   14   83 1    
    30   15   16 1    
    31   15   84 1    
    32   15   85 1    
    33   16   17 1    
    34   17   18 1    
    35   17   86 1    
    36   17   87 1    
    37   18   19 1    
    38   18   37 1    
    39   18   88 1    
    40   19   20 am   BACKBONE|DICT|INTERRES
    41   19   89 1    
    42   20   21 2    
    43   20   22 1    
    44   22   23 1    
    45   22   24 1    
    46   22   90 1    
    47   23   91 1    
    48   23   92 1    
    49   23   93 1    
    50   24   25 am   BACKBONE|DICT|INTERRES
    51   24   94 1    
    52   25   26 2    
    53   25   27 1    
    54   27   28 1    
    55   27   29 1    
    56   27   95 1    
    57   28   96 1    
    58   28   97 1    
    59   28   98 1    
    60   29   30 am   BACKBONE|DICT|INTERRES
    61   29   99 1    
    62   30   31 2    
    63   30   32 1    
    64   32   33 1    
    65   32   34 1    
    66   32  100 1    
    67   33  101 1    
    68   33  102 1    
    69   33  103 1    
    70   34   35 am   BACKBONE|DICT|INTERRES
    71   34  104 1    
    72   35   36 2    
    73   37   38 2    
    74   37   39 am   BACKBONE|DICT|INTERRES
    75   39   40 1    
    76   39  105 1    
    77   40   41 1    
    78   40   42 1    
    79   40  106 1    
    80   41  107 1    
    81   41  108 1    
    82   41  109 1    
    83   42   43 2    
    84   42   44 am   BACKBONE|DICT|INTERRES
    85   44   45 1    
    86   44  110 1    
    87   45   46 1    
    88   45   47 1    
    89   45  111 1    
    90   46  112 1    
    91   46  113 1    
    92   46  114 1    
    93   47   48 2    
    94   47   49 am   BACKBONE|DICT|INTERRES
    95   49   50 1    
    96   49  115 1    
    97   50   51 1    
    98   50   52 1    
    99   50  116 1    
   100   51  117 1    
   101   51  118 1    
   102   51  119 1    
   103   52   53 2    
   104   52   54 am   BACKBONE|DICT|INTERRES
   105   54   55 1    
   106   54  120 1    
   107   55   56 1    
   108   55   57 1    
   109   55  121 1    
   110   56  122 1    
   111   56  123 1    
   112   56  124 1    
   113   57   58 2    
   114   57   59 am   BACKBONE|DICT|INTERRES
   115   59   60 1    
   116   59  125 1    
   117   60   61 1    
   118   60   62 1    
   119   60  126 1    
   120   61  127 1    
   121   61  128 1    
   122   61  129 1    
   123   62   63 2    
   124   62   64 am   BACKBONE|DICT|INTERRES
   125   64   65 1    
   126   64  130 1    
   127   65   66 1    
   128   65   69 1    
   129   65  131 1    
   130   66   67 am   BACKBONE|DICT|INTERRES
   131   66   68 2    
   132   67  132 1    
   133   67  133 1    
   134   69   70 1    
   135   69  134 1    
   136   69  135 1    
   137   70   71 1    
   138   71  136 1    
   139   71  137 1    
@<TRIPOS>SUBSTRUCTURE
     1 UNK         1 GROUP             0       ****    0 ROOT    
