@<TRIPOS>MOLECULE
3R136
137   139    1
SMALL
USER_CHARGES


@<TRIPOS>ATOM
      1 CA         34.1920   23.3594    4.9916 C.3       0 UNK        -0.1979 
      2 C          32.8163   23.8139    4.5282 C.2       0 UNK         0.4864 
      3 O          32.4691   24.9826    4.7109 O.2       0 UNK        -0.5359 
      4 N          32.0459   22.9061    3.9193 N.am      1 UNK        -0.4318 
      5 CA         30.7016   23.1459    3.4003 C.3       1 UNK         0.0824 
      6 C6         29.6288   22.5181    4.3233 C.3       12 UNK        -0.0944 
      7 S7         27.9251   23.0646    3.9470 S.3       12 UNK        -0.2672 
      8 C8         27.5912   24.2544    5.2854 C.3       12 UNK         0.0333 
      9 C9         27.7394   25.6911    4.8083 C.ar      12 UNK        -0.0807 
     10 C10        29.0061   26.2623    4.6521 C.ar      12 UNK        -0.0894 
     11 C11        29.1376   27.5831    4.2150 C.ar      12 UNK        -0.0804 
     12 C12        27.9924   28.3521    3.9907 C.ar      12 UNK        -0.0824 
     13 C13        26.7214   27.7919    4.1382 C.ar      12 UNK        -0.0762 
     14 C14        26.6015   26.4579    4.5384 C.ar      12 UNK        -0.0782 
     15 C15        25.4752   28.6233    3.8760 C.3       12 UNK         0.0230 
     16 S16        24.9037   28.4457    2.1570 S.3       12 UNK        -0.2608 
     17 C17        25.8872   29.7130    1.2836 C.3       12 UNK        -0.0989 
     18 CA         27.1583   29.1486    0.5907 C.3       5 UNK         0.0716 
     19 N          26.8938   28.0301   -0.3234 N.am      5 UNK        -0.4135 
     20 C          26.2016   28.0698   -1.4712 C.2       4 UNK         0.5031 
     21 O          25.6781   29.0855   -1.9309 O.2       4 UNK        -0.5229 
     22 CA         26.0821   26.7531   -2.2615 C.3       4 UNK         0.0329 
     23 CB         27.0825   26.7442   -3.4295 C.3       4 UNK        -0.2001 
     24 N          26.2867   25.5439   -1.4577 N.am      4 UNK        -0.4303 
     25 C          25.4465   25.0642   -0.5323 C.2       3 UNK         0.5044 
     26 O          24.3845   25.6120   -0.2373 O.2       3 UNK        -0.5152 
     27 CA         25.8353   23.7580    0.1962 C.3       3 UNK         0.0319 
     28 CB         25.0708   22.5584   -0.3973 C.3       3 UNK        -0.2001 
     29 N          27.2769   23.4614    0.2962 N.am      3 UNK        -0.4354 
     30 C          28.1611   23.2123   -0.6856 C.2       2 UNK         0.4964 
     31 O          27.8700   23.2420   -1.8813 O.2       2 UNK        -0.5047 
     32 CA         29.6177   22.9201   -0.2815 C.3       2 UNK         0.0288 
     33 CB         30.6267   23.6221   -1.2101 C.3       2 UNK        -0.2113 
     34 N          29.8879   23.3025    1.1059 N.am      2 UNK        -0.4145 
     35 C          30.6271   22.5949    1.9682 C.2       1 UNK         0.5006 
     36 O          31.2128   21.5454    1.6869 O.2       1 UNK        -0.5103 
     37 C          27.9980   30.2493   -0.0937 C.2       5 UNK         0.5055 
     38 O          27.5760   31.4050   -0.1707 O.2       5 UNK        -0.5220 
     39 N          29.1736   29.8541   -0.6017 N.am      6 UNK        -0.4450 
     40 CA         30.1214   30.7194   -1.3123 C.3       6 UNK         0.0367 
     41 CB         31.1729   29.8316   -1.9992 C.3       6 UNK        -0.1929 
     42 C          30.8140   31.7750   -0.4258 C.2       6 UNK         0.5070 
     43 O          31.3609   32.7408   -0.9595 O.2       6 UNK        -0.5237 
     44 N          30.7999   31.5722    0.8944 N.am      7 UNK        -0.4739 
     45 CA         31.4228   32.4130    1.9111 C.3       7 UNK         0.0276 
     46 CB         32.9011   32.0030    2.0635 C.3       7 UNK        -0.1927 
     47 C          30.6485   32.2575    3.2294 C.2       7 UNK         0.5013 
     48 O          29.6797   31.4960    3.2889 O.2       7 UNK        -0.5193 
     49 N          31.0905   32.9748    4.2707 N.am      8 UNK        -0.4253 
     50 CA         30.5475   32.8681    5.6298 C.3       8 UNK         0.0242 
     51 CB         30.9682   34.1033    6.4431 C.3       8 UNK        -0.2000 
     52 C          30.9764   31.5771    6.3541 C.2       8 UNK         0.4948 
     53 O          30.2462   31.1056    7.2262 O.2       8 UNK        -0.5275 
     54 N          32.1429   31.0343    5.9871 N.am      9 UNK        -0.4246 
     55 CA         32.7360   29.8045    6.5032 C.3       9 UNK         0.0261 
     56 CB         33.3620   30.0554    7.8886 C.3       9 UNK        -0.1959 
     57 C          33.7966   29.3396    5.4973 C.2       9 UNK         0.5033 
     58 O          34.2623   30.1573    4.6986 O.2       9 UNK        -0.5390 
     59 N          34.1682   28.0527    5.5740 N.am      10 UNK        -0.4215 
     60 CA         35.1679   27.3717    4.7371 C.3       10 UNK         0.0240 
     61 CB         36.5856   27.9125    5.0239 C.3       10 UNK        -0.1982 
     62 C          34.8000   27.4021    3.2402 C.2       10 UNK         0.4970 
     63 O          35.5853   27.8635    2.4100 O.2       10 UNK        -0.4916 
     64 N          33.5946   26.9106    2.9368 N.am      11 UNK        -0.4279 
     65 CA         33.0163   26.8533    1.5863 C.3       11 UNK         0.1003 
     66 C          33.5306   25.6695    0.7180 C.2       11 UNK         0.5709 
     67 N          34.2974   24.7272    1.2540 N.am      11 UNK        -0.7358 
     68 O          33.2434   25.6178   -0.4743 O.2       11 UNK        -0.4999 
     69 C69        31.4664   26.8866    1.6466 C.3       12 UNK        -0.0954 
     70 S70        30.8566   28.4952    2.2375 S.3       12 UNK        -0.2268 
     71 C71        30.5111   28.1953    4.0004 C.3       12 UNK         0.0203 
     72 H72        34.9708   23.8606    4.4188 H         1 UNK         0.0888 
     73 H73        34.3311   23.6044    6.0441 H         1 UNK         0.0888 
     74 H74        34.3245   22.2838    4.8761 H         1 UNK         0.0888 
     75 H75        32.4081   21.9815    3.7245 H         1 UNK         0.3017 
     76 H76        30.5263   24.2178    3.3450 H         1 UNK         0.0873 
     77 H77        29.6607   21.4282    4.2648 H         1 UNK         0.0745 
     78 H78        29.8574   22.7545    5.3631 H         1 UNK         0.0745 
     79 H79        26.5760   24.0826    5.6464 H         1 UNK         0.0705 
     80 H80        28.2407   24.0791    6.1436 H         1 UNK         0.0705 
     81 H81        29.8888   25.6807    4.8752 H         1 UNK         0.1334 
     82 H82        28.0953   29.3835    3.6808 H         1 UNK         0.1417 
     83 H83        25.6182   26.0211    4.6509 H         1 UNK         0.1562 
     84 H84        25.6528   29.6732    4.1138 H         1 UNK         0.0748 
     85 H85        24.6742   28.2988    4.5421 H         1 UNK         0.0748 
     86 H86        26.1577   30.5034    1.9861 H         1 UNK         0.0940 
     87 H87        25.2346   30.1854    0.5471 H         1 UNK         0.0940 
     88 H88        27.8000   28.7367    1.3670 H         1 UNK         0.0703 
     89 H89        27.2634   27.1357   -0.0392 H         1 UNK         0.3081 
     90 H90        25.0721   26.7135   -2.6749 H         1 UNK         0.0719 
     91 H91        26.9407   27.6135   -4.0734 H         1 UNK         0.0809 
     92 H92        28.1148   26.7637   -3.0777 H         1 UNK         0.0809 
     93 H93        26.9573   25.8581   -4.0524 H         1 UNK         0.0809 
     94 H94        27.0782   24.9552   -1.7004 H         1 UNK         0.2990 
     95 H95        25.4969   23.8809    1.2266 H         1 UNK         0.0690 
     96 H96        25.2625   21.6468    0.1688 H         1 UNK         0.0788 
     97 H97        25.3460   22.3732   -1.4360 H         1 UNK         0.0788 
     98 H98        23.9941   22.7324   -0.3746 H         1 UNK         0.0788 
     99 H99        27.6125   23.3857    1.2465 H         1 UNK         0.2993 
    100 H100       29.7421   21.8407   -0.3938 H         1 UNK         0.0949 
    101 H101       31.6516   23.3615   -0.9456 H         1 UNK         0.0767 
    102 H102       30.4820   23.3285   -2.2505 H         1 UNK         0.0767 
    103 H103       30.5345   24.7076   -1.1587 H         1 UNK         0.0767 
    104 H104       29.4535   24.1573    1.4237 H         1 UNK         0.3013 
    105 H105       29.4472   28.8892   -0.4883 H         1 UNK         0.3121 
    106 H106       29.5694   31.2588   -2.0850 H         1 UNK         0.0774 
    107 H107       31.7475   29.2531   -1.2741 H         1 UNK         0.0815 
    108 H108       30.7108   29.1340   -2.6980 H         1 UNK         0.0815 
    109 H109       31.8816   30.4347   -2.5687 H         1 UNK         0.0815 
    110 H110       30.2826   30.7864    1.2703 H         1 UNK         0.2987 
    111 H111       31.3577   33.4600    1.6071 H         1 UNK         0.0949 
    112 H112       33.4413   32.1118    1.1230 H         1 UNK         0.0806 
    113 H113       33.4195   32.6179    2.7995 H         1 UNK         0.0806 
    114 H114       32.9963   30.9631    2.3800 H         1 UNK         0.0806 
    115 H115       31.8752   33.5975    4.1410 H         1 UNK         0.3010 
    116 H116       29.4569   32.8594    5.5650 H         1 UNK         0.0829 
    117 H117       32.0524   34.1760    6.5386 H         1 UNK         0.0813 
    118 H118       30.5548   34.0642    7.4521 H         1 UNK         0.0813 
    119 H119       30.6076   35.0236    5.9832 H         1 UNK         0.0813 
    120 H120       32.6803   31.4518    5.2365 H         1 UNK         0.3038 
    121 H121       31.9616   29.0387    6.5809 H         1 UNK         0.0769 
    122 H122       32.6131   30.3740    8.6137 H         1 UNK         0.0811 
    123 H123       34.1339   30.8249    7.8459 H         1 UNK         0.0811 
    124 H124       33.8247   29.1499    8.2827 H         1 UNK         0.0811 
    125 H125       33.7094   27.4659    6.2579 H         1 UNK         0.3204 
    126 H126       35.1553   26.3228    5.0356 H         1 UNK         0.0748 
    127 H127       36.6912   28.9566    4.7273 H         1 UNK         0.0771 
    128 H128       36.8308   27.8392    6.0834 H         1 UNK         0.0771 
    129 H129       37.3381   27.3427    4.4772 H         1 UNK         0.0771 
    130 H130       33.0492   26.4656    3.6698 H         1 UNK         0.2980 
    131 H131       33.3378   27.7504    1.0530 H         1 UNK         0.0545 
    132 H132       34.6306   23.9765    0.6705 H         1 UNK         0.3459 
    133 H133       34.5758   24.7827    2.2179 H         1 UNK         0.3459 
    134 H134       31.0810   26.0916    2.2816 H         1 UNK         0.0616 
    135 H135       31.0331   26.7282    0.6575 H         1 UNK         0.0616 
    136 H136       31.2933   27.5735    4.4357 H         1 UNK         0.0634 
    137 H137       30.5492   29.1507    4.5221 H         1 UNK         0.0634 
@<TRIPOS>BOND
     1    1    2 1    
     2    1   72 1    
     3    1   73 1    
     4    1   74 1    
     5    2    3 2    
     6    2    4 am   BACKBONE|DICT|INTERRES
     7    4    5 1    
     8    4   75 1    
     9    5    6 1    
    10    5   35 1    
    11    5   76 1    
    12    6    7 1    
    13    6   77 1    
    14    6   78 1    
    15    7    8 1    
    16    8    9 1    
    17    8   79 1    
    18    8   80 1    
    19    9   10 ar   
    20    9   14 ar   
    21   10   11 ar   
    22   10   81 1    
    23   11   12 ar   
    24   11   71 1    
    25   12   13 ar   
    26   12   82 1    
    27   13   14 ar   
    28   13   15 1    
    29   14   83 1    
    30   15   16 1    
    31   15   84 1    
    32   15   85 1    
    33   16   17 1    
    34   17   18 1    
    35   17   86 1    
    36   17   87 1    
    37   18   19 1    
    38   18   37 1    
    39   18   88 1    
    40   19   20 am   BACKBONE|DICT|INTERRES
    41   19   89 1    
    42   20   21 2    
    43   20   22 1    
    44   22   23 1    
    45   22   24 1    
    46   22   90 1    
    47   23   91 1    
    48   23   92 1    
    49   23   93 1    
    50   24   25 am   BACKBONE|DICT|INTERRES
    51   24   94 1    
    52   25   26 2    
    53   25   27 1    
    54   27   28 1    
    55   27   29 1    
    56   27   95 1    
    57   28   96 1    
    58   28   97 1    
    59   28   98 1    
    60   29   30 am   BACKBONE|DICT|INTERRES
    61   29   99 1    
    62   30   31 2    
    63   30   32 1    
    64   32   33 1    
    65   32   34 1    
    66   32  100 1    
    67   33  101 1    
    68   33  102 1    
    69   33  103 1    
    70   34   35 am   BACKBONE|DICT|INTERRES
    71   34  104 1    
    72   35   36 2    
    73   37   38 2    
    74   37   39 am   BACKBONE|DICT|INTERRES
    75   39   40 1    
    76   39  105 1    
    77   40   41 1    
    78   40   42 1    
    79   40  106 1    
    80   41  107 1    
    81   41  108 1    
    82   41  109 1    
    83   42   43 2    
    84   42   44 am   BACKBONE|DICT|INTERRES
    85   44   45 1    
    86   44  110 1    
    87   45   46 1    
    88   45   47 1    
    89   45  111 1    
    90   46  112 1    
    91   46  113 1    
    92   46  114 1    
    93   47   48 2    
    94   47   49 am   BACKBONE|DICT|INTERRES
    95   49   50 1    
    96   49  115 1    
    97   50   51 1    
    98   50   52 1    
    99   50  116 1    
   100   51  117 1    
   101   51  118 1    
   102   51  119 1    
   103   52   53 2    
   104   52   54 am   BACKBONE|DICT|INTERRES
   105   54   55 1    
   106   54  120 1    
   107   55   56 1    
   108   55   57 1    
   109   55  121 1    
   110   56  122 1    
   111   56  123 1    
   112   56  124 1    
   113   57   58 2    
   114   57   59 am   BACKBONE|DICT|INTERRES
   115   59   60 1    
   116   59  125 1    
   117   60   61 1    
   118   60   62 1    
   119   60  126 1    
   120   61  127 1    
   121   61  128 1    
   122   61  129 1    
   123   62   63 2    
   124   62   64 am   BACKBONE|DICT|INTERRES
   125   64   65 1    
   126   64  130 1    
   127   65   66 1    
   128   65   69 1    
   129   65  131 1    
   130   66   67 am   BACKBONE|DICT|INTERRES
   131   66   68 2    
   132   67  132 1    
   133   67  133 1    
   134   69   70 1    
   135   69  134 1    
   136   69  135 1    
   137   70   71 1    
   138   71  136 1    
   139   71  137 1    
@<TRIPOS>SUBSTRUCTURE
     1 UNK         1 GROUP             0       ****    0 ROOT    
