@<TRIPOS>MOLECULE
3R136
137   139    1
SMALL
USER_CHARGES


@<TRIPOS>ATOM
      1 CA         27.1158   19.6653   -2.5595 C.3       0 UNK        -0.1979 
      2 C          28.3083   20.6105   -2.5791 C.2       0 UNK         0.4864 
      3 O          28.9935   20.7093   -3.5985 O.2       0 UNK        -0.5359 
      4 N          28.5655   21.2991   -1.4593 N.am      1 UNK        -0.4318 
      5 CA         29.6245   22.3026   -1.3216 C.3       1 UNK         0.0824 
      6 C6         29.9014   22.6149    0.1697 C.3       12 UNK        -0.0944 
      7 S7         31.5317   23.3942    0.4294 S.3       12 UNK        -0.2672 
      8 C8         32.0529   22.6400    2.0034 C.3       12 UNK         0.0333 
      9 C9         31.2721   23.2165    3.1747 C.ar      12 UNK        -0.0807 
     10 C10        31.7127   24.3853    3.8001 C.ar      12 UNK        -0.0894 
     11 C11        30.9821   24.9542    4.8500 C.ar      12 UNK        -0.0804 
     12 C12        29.8179   24.3169    5.2942 C.ar      12 UNK        -0.0824 
     13 C13        29.3655   23.1471    4.6748 C.ar      12 UNK        -0.0762 
     14 C14        30.1024   22.5971    3.6223 C.ar      12 UNK        -0.0782 
     15 C15        28.0769   22.4742    5.1260 C.3       12 UNK         0.0230 
     16 S16        26.7076   22.8077    3.9688 S.3       12 UNK        -0.2608 
     17 C17        26.1021   24.4348    4.5380 C.3       12 UNK        -0.0989 
     18 CA         26.7941   25.6359    3.8367 C.3       5 UNK         0.0716 
     19 N          26.7630   25.5793    2.3727 N.am      5 UNK        -0.4135 
     20 C          25.6982   25.6945    1.5683 C.2       4 UNK         0.5031 
     21 O          24.5358   25.7561    1.9722 O.2       4 UNK        -0.5229 
     22 CA         25.9949   25.7904    0.0544 C.3       4 UNK         0.0329 
     23 CB         24.9640   26.6673   -0.6869 C.3       4 UNK        -0.2001 
     24 N          27.3642   26.2311   -0.2661 N.am      4 UNK        -0.4303 
     25 C          27.9618   27.3766    0.1107 C.2       3 UNK         0.5044 
     26 O          27.4073   28.2310    0.8012 O.2       3 UNK        -0.5152 
     27 CA         29.4371   27.5902   -0.2814 C.3       3 UNK         0.0319 
     28 CB         30.3345   27.5097    0.9657 C.3       3 UNK        -0.2001 
     29 N          29.9250   26.6323   -1.2757 N.am      3 UNK        -0.4354 
     30 C          29.6389   26.6757   -2.5850 C.2       2 UNK         0.4964 
     31 O          28.9972   27.5822   -3.1161 O.2       2 UNK        -0.5047 
     32 CA         30.1244   25.4926   -3.4447 C.3       2 UNK         0.0288 
     33 CB         31.4637   25.8321   -4.1190 C.3       2 UNK        -0.2113 
     34 N          30.2618   24.2314   -2.7047 N.am      2 UNK        -0.4145 
     35 C          29.2573   23.5839   -2.0964 C.2       1 UNK         0.5006 
     36 O          28.0932   23.9928   -2.0772 O.2       1 UNK        -0.5103 
     37 C          26.3556   27.0038    4.4156 C.2       5 UNK         0.5055 
     38 O          26.0327   27.0798    5.6032 O.2       5 UNK        -0.5220 
     39 N          26.3871   28.0679    3.6001 N.am      6 UNK        -0.4450 
     40 CA         26.2642   29.4552    4.0455 C.3       6 UNK         0.0367 
     41 CB         25.6471   30.2898    2.9105 C.3       6 UNK        -0.1929 
     42 C          27.6555   29.9912    4.4146 C.2       6 UNK         0.5070 
     43 O          28.6647   29.4001    4.0260 O.2       6 UNK        -0.5237 
     44 N          27.7008   31.1286    5.1194 N.am      7 UNK        -0.4739 
     45 CA         28.9307   31.8201    5.5308 C.3       7 UNK         0.0276 
     46 CB         28.6095   32.7412    6.7224 C.3       7 UNK        -0.1927 
     47 C          29.6178   32.5710    4.3667 C.2       7 UNK         0.5013 
     48 O          29.9002   33.7651    4.4828 O.2       7 UNK        -0.5193 
     49 N          29.8477   31.8651    3.2554 N.am      8 UNK        -0.4253 
     50 CA         30.4811   32.3640    2.0401 C.3       8 UNK         0.0242 
     51 CB         29.7443   31.7733    0.8263 C.3       8 UNK        -0.2000 
     52 C          31.9573   31.9510    2.0135 C.2       8 UNK         0.4948 
     53 O          32.2747   30.8051    2.3423 O.2       8 UNK        -0.5275 
     54 N          32.8221   32.8775    1.5750 N.am      9 UNK        -0.4246 
     55 CA         34.2664   32.7088    1.3719 C.3       9 UNK         0.0261 
     56 CB         34.5235   31.8788    0.0922 C.3       9 UNK        -0.1959 
     57 C          34.9706   32.1641    2.6314 C.2       9 UNK         0.5033 
     58 O          34.9557   32.8364    3.6648 O.2       9 UNK        -0.5390 
     59 N          35.5416   30.9551    2.5381 N.am      10 UNK        -0.4215 
     60 CA         36.2262   30.2436    3.6213 C.3       10 UNK         0.0240 
     61 CB         36.8535   28.9574    3.0589 C.3       10 UNK        -0.1982 
     62 C          35.3372   29.9192    4.8369 C.2       10 UNK         0.4970 
     63 O          35.8754   29.7461    5.9314 O.2       10 UNK        -0.4916 
     64 N          34.0133   29.8540    4.6419 N.am      11 UNK        -0.4279 
     65 CA         33.0299   29.6900    5.7219 C.3       11 UNK         0.1003 
     66 C          32.7526   30.9994    6.5194 C.2       11 UNK         0.5709 
     67 N          33.2541   32.1606    6.1109 N.am      11 UNK        -0.7358 
     68 O          32.0661   30.9598    7.5372 O.2       11 UNK        -0.4999 
     69 C69        31.7042   29.0724    5.2114 C.3       12 UNK        -0.0954 
     70 S70        31.9092   27.5210    4.2776 S.3       12 UNK        -0.2268 
     71 C71        31.4337   26.2576    5.5040 C.3       12 UNK         0.0203 
     72 H72        27.4406   18.6467   -2.7702 H         1 UNK         0.0888 
     73 H73        26.6098   19.6668   -1.5942 H         1 UNK         0.0888 
     74 H74        26.3934   19.9577   -3.3211 H         1 UNK         0.0888 
     75 H75        27.9479   21.2002   -0.6666 H         1 UNK         0.3017 
     76 H76        30.5293   21.8763   -1.7616 H         1 UNK         0.0873 
     77 H77        29.1234   23.2456    0.6057 H         1 UNK         0.0745 
     78 H78        29.8821   21.6830    0.7362 H         1 UNK         0.0745 
     79 H79        31.9389   21.5559    1.9563 H         1 UNK         0.0705 
     80 H80        33.1186   22.8259    2.1450 H         1 UNK         0.0705 
     81 H81        32.6148   24.8679    3.4493 H         1 UNK         0.1334 
     82 H82        29.2471   24.7449    6.1071 H         1 UNK         0.1417 
     83 H83        29.7512   21.6945    3.1413 H         1 UNK         0.1562 
     84 H84        27.8031   22.7839    6.1357 H         1 UNK         0.0748 
     85 H85        28.2357   21.3960    5.1755 H         1 UNK         0.0748 
     86 H86        26.2300   24.4912    5.6204 H         1 UNK         0.0940 
     87 H87        25.0252   24.4722    4.3657 H         1 UNK         0.0940 
     88 H88        27.8533   25.5857    4.0785 H         1 UNK         0.0703 
     89 H89        27.6676   25.5234    1.9299 H         1 UNK         0.3081 
     90 H90        25.9062   24.7746   -0.3337 H         1 UNK         0.0719 
     91 H91        24.9530   27.6883   -0.3039 H         1 UNK         0.0809 
     92 H92        25.1775   26.7115   -1.7549 H         1 UNK         0.0809 
     93 H93        23.9553   26.2675   -0.5764 H         1 UNK         0.0809 
     94 H94        27.8834   25.5888   -0.8561 H         1 UNK         0.2990 
     95 H95        29.5191   28.5970   -0.6963 H         1 UNK         0.0690 
     96 H96        31.3706   27.7508    0.7275 H         1 UNK         0.0788 
     97 H97        30.3172   26.5175    1.4193 H         1 UNK         0.0788 
     98 H98        30.0127   28.2199    1.7300 H         1 UNK         0.0788 
     99 H99        30.4753   25.8589   -0.9297 H         1 UNK         0.2993 
    100 H100       29.3766   25.3354   -4.2252 H         1 UNK         0.0949 
    101 H101       31.3866   26.7531   -4.6989 H         1 UNK         0.0767 
    102 H102       32.2602   25.9735   -3.3871 H         1 UNK         0.0767 
    103 H103       31.7735   25.0446   -4.8064 H         1 UNK         0.0767 
    104 H104       31.1923   23.8414   -2.6489 H         1 UNK         0.3013 
    105 H105       26.7296   27.9504    2.6504 H         1 UNK         0.3121 
    106 H106       25.6157   29.5124    4.9222 H         1 UNK         0.0774 
    107 H107       26.3015   30.3339    2.0388 H         1 UNK         0.0815 
    108 H108       25.4651   31.3161    3.2308 H         1 UNK         0.0815 
    109 H109       24.6908   29.8766    2.5893 H         1 UNK         0.0815 
    110 H110       26.8312   31.5791    5.3672 H         1 UNK         0.2987 
    111 H111       29.6409   31.0716    5.8861 H         1 UNK         0.0949 
    112 H112       27.9093   33.5307    6.4466 H         1 UNK         0.0806 
    113 H113       28.1777   32.1815    7.5522 H         1 UNK         0.0806 
    114 H114       29.5142   33.2217    7.0980 H         1 UNK         0.0806 
    115 H115       29.6195   30.8737    3.2756 H         1 UNK         0.3010 
    116 H116       30.4050   33.4527    1.9978 H         1 UNK         0.0829 
    117 H117       29.7841   30.6830    0.8230 H         1 UNK         0.0813 
    118 H118       28.6945   32.0670    0.8186 H         1 UNK         0.0813 
    119 H119       30.1867   32.1198   -0.1085 H         1 UNK         0.0813 
    120 H120       32.4631   33.7977    1.3612 H         1 UNK         0.3038 
    121 H121       34.6770   33.7059    1.2059 H         1 UNK         0.0769 
    122 H122       34.1006   30.8753    0.1569 H         1 UNK         0.0811 
    123 H123       35.5907   31.7842   -0.1139 H         1 UNK         0.0811 
    124 H124       34.0781   32.3614   -0.7778 H         1 UNK         0.0811 
    125 H125       35.4681   30.4692    1.6562 H         1 UNK         0.3204 
    126 H126       37.0311   30.8902    3.9769 H         1 UNK         0.0748 
    127 H127       37.4016   28.4188    3.8336 H         1 UNK         0.0771 
    128 H128       36.0959   28.2786    2.6648 H         1 UNK         0.0771 
    129 H129       37.5607   29.1758    2.2585 H         1 UNK         0.0771 
    130 H130       33.6255   30.0331    3.7213 H         1 UNK         0.2980 
    131 H131       33.4464   28.9859    6.4445 H         1 UNK         0.0545 
    132 H132       33.0630   32.9911    6.6475 H         1 UNK         0.3459 
    133 H133       33.8257   32.2240    5.2761 H         1 UNK         0.3459 
    134 H134       31.0087   28.9077    6.0357 H         1 UNK         0.0616 
    135 H135       31.2115   29.7753    4.5420 H         1 UNK         0.0616 
    136 H136       32.2804   26.0602    6.1622 H         1 UNK         0.0634 
    137 H137       30.6323   26.6527    6.1297 H         1 UNK         0.0634 
@<TRIPOS>BOND
     1    1    2 1    
     2    1   72 1    
     3    1   73 1    
     4    1   74 1    
     5    2    3 2    
     6    2    4 am   BACKBONE|DICT|INTERRES
     7    4    5 1    
     8    4   75 1    
     9    5    6 1    
    10    5   35 1    
    11    5   76 1    
    12    6    7 1    
    13    6   77 1    
    14    6   78 1    
    15    7    8 1    
    16    8    9 1    
    17    8   79 1    
    18    8   80 1    
    19    9   10 ar   
    20    9   14 ar   
    21   10   11 ar   
    22   10   81 1    
    23   11   12 ar   
    24   11   71 1    
    25   12   13 ar   
    26   12   82 1    
    27   13   14 ar   
    28   13   15 1    
    29   14   83 1    
    30   15   16 1    
    31   15   84 1    
    32   15   85 1    
    33   16   17 1    
    34   17   18 1    
    35   17   86 1    
    36   17   87 1    
    37   18   19 1    
    38   18   37 1    
    39   18   88 1    
    40   19   20 am   BACKBONE|DICT|INTERRES
    41   19   89 1    
    42   20   21 2    
    43   20   22 1    
    44   22   23 1    
    45   22   24 1    
    46   22   90 1    
    47   23   91 1    
    48   23   92 1    
    49   23   93 1    
    50   24   25 am   BACKBONE|DICT|INTERRES
    51   24   94 1    
    52   25   26 2    
    53   25   27 1    
    54   27   28 1    
    55   27   29 1    
    56   27   95 1    
    57   28   96 1    
    58   28   97 1    
    59   28   98 1    
    60   29   30 am   BACKBONE|DICT|INTERRES
    61   29   99 1    
    62   30   31 2    
    63   30   32 1    
    64   32   33 1    
    65   32   34 1    
    66   32  100 1    
    67   33  101 1    
    68   33  102 1    
    69   33  103 1    
    70   34   35 am   BACKBONE|DICT|INTERRES
    71   34  104 1    
    72   35   36 2    
    73   37   38 2    
    74   37   39 am   BACKBONE|DICT|INTERRES
    75   39   40 1    
    76   39  105 1    
    77   40   41 1    
    78   40   42 1    
    79   40  106 1    
    80   41  107 1    
    81   41  108 1    
    82   41  109 1    
    83   42   43 2    
    84   42   44 am   BACKBONE|DICT|INTERRES
    85   44   45 1    
    86   44  110 1    
    87   45   46 1    
    88   45   47 1    
    89   45  111 1    
    90   46  112 1    
    91   46  113 1    
    92   46  114 1    
    93   47   48 2    
    94   47   49 am   BACKBONE|DICT|INTERRES
    95   49   50 1    
    96   49  115 1    
    97   50   51 1    
    98   50   52 1    
    99   50  116 1    
   100   51  117 1    
   101   51  118 1    
   102   51  119 1    
   103   52   53 2    
   104   52   54 am   BACKBONE|DICT|INTERRES
   105   54   55 1    
   106   54  120 1    
   107   55   56 1    
   108   55   57 1    
   109   55  121 1    
   110   56  122 1    
   111   56  123 1    
   112   56  124 1    
   113   57   58 2    
   114   57   59 am   BACKBONE|DICT|INTERRES
   115   59   60 1    
   116   59  125 1    
   117   60   61 1    
   118   60   62 1    
   119   60  126 1    
   120   61  127 1    
   121   61  128 1    
   122   61  129 1    
   123   62   63 2    
   124   62   64 am   BACKBONE|DICT|INTERRES
   125   64   65 1    
   126   64  130 1    
   127   65   66 1    
   128   65   69 1    
   129   65  131 1    
   130   66   67 am   BACKBONE|DICT|INTERRES
   131   66   68 2    
   132   67  132 1    
   133   67  133 1    
   134   69   70 1    
   135   69  134 1    
   136   69  135 1    
   137   70   71 1    
   138   71  136 1    
   139   71  137 1    
@<TRIPOS>SUBSTRUCTURE
     1 UNK         1 GROUP             0       ****    0 ROOT    
