@<TRIPOS>MOLECULE
3R136
137   139    1
SMALL
USER_CHARGES


@<TRIPOS>ATOM
      1 CA         31.2741   26.1669   -0.8842 C.3       0 UNK        -0.1979 
      2 C          30.3393   25.0929   -0.3503 C.2       0 UNK         0.4864 
      3 O          29.2925   25.4103    0.2096 O.2       0 UNK        -0.5359 
      4 N          30.7029   23.8168   -0.5358 N.am      1 UNK        -0.4318 
      5 CA         29.9619   22.6544   -0.0257 C.3       1 UNK         0.0824 
      6 C6         30.7819   21.3425   -0.1243 C.3       12 UNK        -0.0944 
      7 S7         32.4562   21.4541    0.5940 S.3       12 UNK        -0.2672 
      8 C8         32.1909   20.8244    2.2810 C.3       12 UNK         0.0333 
      9 C9         31.6520   21.9091    3.2010 C.ar      12 UNK        -0.0807 
     10 C10        32.5271   22.8513    3.7475 C.ar      12 UNK        -0.0894 
     11 C11        32.0557   23.8586    4.5969 C.ar      12 UNK        -0.0804 
     12 C12        30.6894   23.9039    4.9045 C.ar      12 UNK        -0.0824 
     13 C13        29.8049   22.9544    4.3803 C.ar      12 UNK        -0.0762 
     14 C14        30.2936   21.9610    3.5259 C.ar      12 UNK        -0.0782 
     15 C15        28.3335   22.9535    4.7786 C.3       12 UNK         0.0230 
     16 S16        27.2961   23.9453    3.6542 S.3       12 UNK        -0.2608 
     17 C17        27.1451   25.5358    4.5445 C.3       12 UNK        -0.0989 
     18 CA         27.5957   26.7341    3.6785 C.3       5 UNK         0.0716 
     19 N          26.7848   26.8906    2.4745 N.am      5 UNK        -0.4135 
     20 C          27.1276   27.6375    1.4205 C.2       4 UNK         0.5031 
     21 O          28.1791   28.2790    1.3654 O.2       4 UNK        -0.5229 
     22 CA         26.1376   27.6698    0.2358 C.3       4 UNK         0.0329 
     23 CB         26.7233   28.3892   -0.9940 C.3       4 UNK        -0.2001 
     24 N          25.6828   26.3376   -0.1773 N.am      4 UNK        -0.4303 
     25 C          24.8077   25.5556    0.4658 C.2       3 UNK         0.5044 
     26 O          24.2715   25.8805    1.5265 O.2       3 UNK        -0.5152 
     27 CA         24.4760   24.1760   -0.1365 C.3       3 UNK         0.0319 
     28 CB         23.1594   24.2311   -0.9361 C.3       3 UNK        -0.2001 
     29 N          25.5473   23.5400   -0.9197 N.am      3 UNK        -0.4354 
     30 C          26.0776   23.9071   -2.0943 C.2       2 UNK         0.4964 
     31 O          25.7766   24.9426   -2.6899 O.2       2 UNK        -0.5047 
     32 CA         27.1536   22.9693   -2.6745 C.3       2 UNK         0.0288 
     33 CB         27.4852   23.2898   -4.1444 C.3       2 UNK        -0.2113 
     34 N          28.3894   23.0198   -1.8929 N.am      2 UNK        -0.4145 
     35 C          28.5818   22.4568   -0.6909 C.2       1 UNK         0.5006 
     36 O          27.7222   21.7881   -0.1126 O.2       1 UNK        -0.5103 
     37 C          27.6094   28.0461    4.4914 C.2       5 UNK         0.5055 
     38 O          26.5646   28.6849    4.6420 O.2       5 UNK        -0.5220 
     39 N          28.7935   28.3965    5.0086 N.am      6 UNK        -0.4450 
     40 CA         29.1337   29.6058    5.7654 C.3       6 UNK         0.0367 
     41 CB         28.3634   29.6645    7.1021 C.3       6 UNK        -0.1929 
     42 C          29.0030   30.8950    4.9302 C.2       6 UNK         0.5070 
     43 O          28.5288   31.9141    5.4378 O.2       6 UNK        -0.5237 
     44 N          29.4459   30.8475    3.6656 N.am      7 UNK        -0.4739 
     45 CA         29.4504   31.9744    2.7261 C.3       7 UNK         0.0276 
     46 CB         29.4913   31.4319    1.2862 C.3       7 UNK        -0.1927 
     47 C          30.5842   32.9806    3.0150 C.2       7 UNK         0.5013 
     48 O          31.4626   33.1871    2.1732 O.2       7 UNK        -0.5193 
     49 N          30.5334   33.5952    4.2053 N.am      8 UNK        -0.4253 
     50 CA         31.4517   34.6103    4.7307 C.3       8 UNK         0.0242 
     51 CB         31.2672   35.9483    3.9777 C.3       8 UNK        -0.2000 
     52 C          32.9070   34.1056    4.7649 C.2       8 UNK         0.4948 
     53 O          33.2443   33.3108    5.6433 O.2       8 UNK        -0.5275 
     54 N          33.7367   34.5757    3.8238 N.am      9 UNK        -0.4246 
     55 CA         35.1365   34.1775    3.6660 C.3       9 UNK         0.0261 
     56 CB         35.8666   35.2372    2.8240 C.3       9 UNK        -0.1959 
     57 C          35.3135   32.7811    3.0410 C.2       9 UNK         0.5033 
     58 O          36.3702   32.1770    3.2351 O.2       9 UNK        -0.5390 
     59 N          34.3082   32.2965    2.2994 N.am      10 UNK        -0.4215 
     60 CA         34.2878   30.9586    1.7072 C.3       10 UNK         0.0240 
     61 CB         33.5631   31.0279    0.3516 C.3       10 UNK        -0.1982 
     62 C          33.5920   29.9684    2.6535 C.2       10 UNK         0.4970 
     63 O          32.9024   30.3849    3.5876 O.2       10 UNK        -0.4916 
     64 N          33.7635   28.6675    2.3799 N.am      11 UNK        -0.4279 
     65 CA         33.1121   27.5837    3.1361 C.3       11 UNK         0.1003 
     66 C          31.5626   27.5703    3.0352 C.2       11 UNK         0.5709 
     67 N          30.9614   28.1399    1.9963 N.am      11 UNK        -0.7358 
     68 O          30.9080   27.0549    3.9332 O.2       11 UNK        -0.4999 
     69 C69        33.6989   26.1797    2.7992 C.3       12 UNK        -0.0954 
     70 S70        34.4546   25.3550    4.2397 S.3       12 UNK        -0.2268 
     71 C71        33.0070   24.8649    5.2474 C.3       12 UNK         0.0203 
     72 H72        31.9846   26.4600   -0.1161 H         1 UNK         0.0888 
     73 H73        31.8312   25.8181   -1.7503 H         1 UNK         0.0888 
     74 H74        30.7087   27.0472   -1.1795 H         1 UNK         0.0888 
     75 H75        31.5830   23.6070   -0.9854 H         1 UNK         0.3017 
     76 H76        29.7609   22.8534    1.0275 H         1 UNK         0.0873 
     77 H77        30.2453   20.5199    0.3524 H         1 UNK         0.0745 
     78 H78        30.9008   21.0520   -1.1701 H         1 UNK         0.0745 
     79 H79        33.1438   20.4636    2.6710 H         1 UNK         0.0705 
     80 H80        31.5275   19.9585    2.2624 H         1 UNK         0.0705 
     81 H81        33.5800   22.7921    3.5096 H         1 UNK         0.1334 
     82 H82        30.3160   24.6697    5.5705 H         1 UNK         0.1417 
     83 H83        29.6152   21.2233    3.1185 H         1 UNK         0.1562 
     84 H84        28.2172   23.2910    5.8093 H         1 UNK         0.0748 
     85 H85        27.9578   21.9292    4.7670 H         1 UNK         0.0748 
     86 H86        27.7373   25.4957    5.4603 H         1 UNK         0.0940 
     87 H87        26.1074   25.6588    4.8608 H         1 UNK         0.0940 
     88 H88        28.6057   26.5187    3.3335 H         1 UNK         0.0703 
     89 H89        25.8900   26.4133    2.4510 H         1 UNK         0.3081 
     90 H90        25.2668   28.2376    0.5696 H         1 UNK         0.0719 
     91 H91        27.6136   27.8799   -1.3660 H         1 UNK         0.0809 
     92 H92        25.9999   28.4413   -1.8078 H         1 UNK         0.0809 
     93 H93        27.0102   29.4131   -0.7504 H         1 UNK         0.0809 
     94 H94        26.0462   25.9872   -1.0574 H         1 UNK         0.2990 
     95 H95        24.3123   23.5107    0.7129 H         1 UNK         0.0690 
     96 H96        22.8700   23.2427   -1.2933 H         1 UNK         0.0788 
     97 H97        23.2338   24.8926   -1.7999 H         1 UNK         0.0788 
     98 H98        22.3429   24.6025   -0.3153 H         1 UNK         0.0788 
     99 H99        25.9700   22.7268   -0.4808 H         1 UNK         0.2993 
    100 H100       26.7561   21.9524   -2.6377 H         1 UNK         0.0949 
    101 H101       27.9165   24.2856   -4.2557 H         1 UNK         0.0767 
    102 H102       28.1923   22.5700   -4.5574 H         1 UNK         0.0767 
    103 H103       26.5879   23.2518   -4.7637 H         1 UNK         0.0767 
    104 H104       29.1413   23.5746   -2.2745 H         1 UNK         0.3013 
    105 H105       29.5923   27.8110    4.7564 H         1 UNK         0.3121 
    106 H106       30.1943   29.5169    6.0060 H         1 UNK         0.0774 
    107 H107       28.7243   30.4848    7.7237 H         1 UNK         0.0815 
    108 H108       27.2953   29.8214    6.9495 H         1 UNK         0.0815 
    109 H109       28.4903   28.7458    7.6745 H         1 UNK         0.0815 
    110 H110       29.8541   29.9860    3.3288 H         1 UNK         0.2987 
    111 H111       28.5116   32.5220    2.8370 H         1 UNK         0.0949 
    112 H112       29.5419   32.2432    0.5589 H         1 UNK         0.0806 
    113 H113       30.3546   30.7885    1.1216 H         1 UNK         0.0806 
    114 H114       28.5954   30.8557    1.0578 H         1 UNK         0.0806 
    115 H115       29.8006   33.2864    4.8388 H         1 UNK         0.3010 
    116 H116       31.1644   34.7782    5.7699 H         1 UNK         0.0829 
    117 H117       30.2519   36.3255    4.1019 H         1 UNK         0.0813 
    118 H118       31.9397   36.7150    4.3655 H         1 UNK         0.0813 
    119 H119       31.4496   35.8553    2.9065 H         1 UNK         0.0813 
    120 H120       33.3603   35.2075    3.1315 H         1 UNK         0.3038 
    121 H121       35.5988   34.1524    4.6554 H         1 UNK         0.0769 
    122 H122       36.9228   34.9873    2.7129 H         1 UNK         0.0811 
    123 H123       35.8164   36.2206    3.2920 H         1 UNK         0.0811 
    124 H124       35.4443   35.3184    1.8214 H         1 UNK         0.0811 
    125 H125       33.4271   32.8031    2.2717 H         1 UNK         0.3204 
    126 H126       35.3085   30.6100    1.5354 H         1 UNK         0.0748 
    127 H127       33.5320   30.0528   -0.1356 H         1 UNK         0.0771 
    128 H128       32.5354   31.3742    0.4586 H         1 UNK         0.0771 
    129 H129       34.0713   31.7105   -0.3299 H         1 UNK         0.0771 
    130 H130       34.3373   28.3936    1.5964 H         1 UNK         0.2980 
    131 H131       33.3227   27.8019    4.1851 H         1 UNK         0.0545 
    132 H132       31.5111   28.5646    1.2699 H         1 UNK         0.3459 
    133 H133       29.9509   28.0900    1.8854 H         1 UNK         0.3459 
    134 H134       34.4779   26.2589    2.0397 H         1 UNK         0.0616 
    135 H135       32.9577   25.5046    2.3650 H         1 UNK         0.0616 
    136 H136       32.4690   25.7644    5.5464 H         1 UNK         0.0634 
    137 H137       33.3794   24.4206    6.1711 H         1 UNK         0.0634 
@<TRIPOS>BOND
     1    1    2 1    
     2    1   72 1    
     3    1   73 1    
     4    1   74 1    
     5    2    3 2    
     6    2    4 am   BACKBONE|DICT|INTERRES
     7    4    5 1    
     8    4   75 1    
     9    5    6 1    
    10    5   35 1    
    11    5   76 1    
    12    6    7 1    
    13    6   77 1    
    14    6   78 1    
    15    7    8 1    
    16    8    9 1    
    17    8   79 1    
    18    8   80 1    
    19    9   10 ar   
    20    9   14 ar   
    21   10   11 ar   
    22   10   81 1    
    23   11   12 ar   
    24   11   71 1    
    25   12   13 ar   
    26   12   82 1    
    27   13   14 ar   
    28   13   15 1    
    29   14   83 1    
    30   15   16 1    
    31   15   84 1    
    32   15   85 1    
    33   16   17 1    
    34   17   18 1    
    35   17   86 1    
    36   17   87 1    
    37   18   19 1    
    38   18   37 1    
    39   18   88 1    
    40   19   20 am   BACKBONE|DICT|INTERRES
    41   19   89 1    
    42   20   21 2    
    43   20   22 1    
    44   22   23 1    
    45   22   24 1    
    46   22   90 1    
    47   23   91 1    
    48   23   92 1    
    49   23   93 1    
    50   24   25 am   BACKBONE|DICT|INTERRES
    51   24   94 1    
    52   25   26 2    
    53   25   27 1    
    54   27   28 1    
    55   27   29 1    
    56   27   95 1    
    57   28   96 1    
    58   28   97 1    
    59   28   98 1    
    60   29   30 am   BACKBONE|DICT|INTERRES
    61   29   99 1    
    62   30   31 2    
    63   30   32 1    
    64   32   33 1    
    65   32   34 1    
    66   32  100 1    
    67   33  101 1    
    68   33  102 1    
    69   33  103 1    
    70   34   35 am   BACKBONE|DICT|INTERRES
    71   34  104 1    
    72   35   36 2    
    73   37   38 2    
    74   37   39 am   BACKBONE|DICT|INTERRES
    75   39   40 1    
    76   39  105 1    
    77   40   41 1    
    78   40   42 1    
    79   40  106 1    
    80   41  107 1    
    81   41  108 1    
    82   41  109 1    
    83   42   43 2    
    84   42   44 am   BACKBONE|DICT|INTERRES
    85   44   45 1    
    86   44  110 1    
    87   45   46 1    
    88   45   47 1    
    89   45  111 1    
    90   46  112 1    
    91   46  113 1    
    92   46  114 1    
    93   47   48 2    
    94   47   49 am   BACKBONE|DICT|INTERRES
    95   49   50 1    
    96   49  115 1    
    97   50   51 1    
    98   50   52 1    
    99   50  116 1    
   100   51  117 1    
   101   51  118 1    
   102   51  119 1    
   103   52   53 2    
   104   52   54 am   BACKBONE|DICT|INTERRES
   105   54   55 1    
   106   54  120 1    
   107   55   56 1    
   108   55   57 1    
   109   55  121 1    
   110   56  122 1    
   111   56  123 1    
   112   56  124 1    
   113   57   58 2    
   114   57   59 am   BACKBONE|DICT|INTERRES
   115   59   60 1    
   116   59  125 1    
   117   60   61 1    
   118   60   62 1    
   119   60  126 1    
   120   61  127 1    
   121   61  128 1    
   122   61  129 1    
   123   62   63 2    
   124   62   64 am   BACKBONE|DICT|INTERRES
   125   64   65 1    
   126   64  130 1    
   127   65   66 1    
   128   65   69 1    
   129   65  131 1    
   130   66   67 am   BACKBONE|DICT|INTERRES
   131   66   68 2    
   132   67  132 1    
   133   67  133 1    
   134   69   70 1    
   135   69  134 1    
   136   69  135 1    
   137   70   71 1    
   138   71  136 1    
   139   71  137 1    
@<TRIPOS>SUBSTRUCTURE
     1 UNK         1 GROUP             0       ****    0 ROOT    
