@<TRIPOS>MOLECULE
3R136
137   139    1
SMALL
USER_CHARGES


@<TRIPOS>ATOM
      1 CA         26.4519   18.0343    2.1344 C.3       0 UNK        -0.1979 
      2 C          27.1141   19.3010    1.6114 C.2       0 UNK         0.4864 
      3 O          26.8571   20.3829    2.1420 O.2       0 UNK        -0.5359 
      4 N          27.9658   19.1656    0.5831 N.am      1 UNK        -0.4318 
      5 CA         28.6798   20.2438   -0.1164 C.3       1 UNK         0.0824 
      6 C6         29.5614   21.0983    0.8467 C.3       12 UNK        -0.0944 
      7 S7         31.0384   21.8251    0.0532 S.3       12 UNK        -0.2672 
      8 C8         30.7312   23.6158    0.2006 C.3       12 UNK         0.0333 
      9 C9         31.0476   24.1508    1.5891 C.ar      12 UNK        -0.0807 
     10 C10        32.3437   24.5820    1.8821 C.ar      12 UNK        -0.0894 
     11 C11        32.6520   25.1055    3.1400 C.ar      12 UNK        -0.0804 
     12 C12        31.6542   25.1894    4.1149 C.ar      12 UNK        -0.0824 
     13 C13        30.3523   24.7593    3.8361 C.ar      12 UNK        -0.0762 
     14 C14        30.0539   24.2444    2.5703 C.ar      12 UNK        -0.0782 
     15 C15        29.2761   24.8177    4.9131 C.3       12 UNK         0.0230 
     16 S16        28.0782   26.1632    4.6404 S.3       12 UNK        -0.2608 
     17 C17        29.1083   27.6534    4.9044 C.3       12 UNK        -0.0989 
     18 CA         29.0081   28.6870    3.7536 C.3       5 UNK         0.0716 
     19 N          29.1539   28.0594    2.4399 N.am      5 UNK        -0.4135 
     20 C          29.2282   28.6921    1.2633 C.2       4 UNK         0.5031 
     21 O          29.2549   29.9169    1.1439 O.2       4 UNK        -0.5229 
     22 CA         29.1829   27.8059    0.0048 C.3       4 UNK         0.0329 
     23 CB         30.6084   27.4409   -0.4383 C.3       4 UNK        -0.2001 
     24 N          28.3880   26.5771    0.1576 N.am      4 UNK        -0.4303 
     25 C          27.1006   26.5174    0.5365 C.2       3 UNK         0.5044 
     26 O          26.4415   27.5111    0.8415 O.2       3 UNK        -0.5152 
     27 CA         26.4598   25.1173    0.6356 C.3       3 UNK         0.0319 
     28 CB         24.9175   25.1641    0.5939 C.3       3 UNK        -0.2001 
     29 N          26.9839   24.1517   -0.3405 N.am      3 UNK        -0.4354 
     30 C          26.9152   24.2186   -1.6807 C.2       2 UNK         0.4964 
     31 O          26.3628   25.1346   -2.2901 O.2       2 UNK        -0.5047 
     32 CA         27.6064   23.0982   -2.4898 C.3       2 UNK         0.0288 
     33 CB         28.6204   23.6932   -3.4839 C.3       2 UNK        -0.2113 
     34 N          28.3031   22.1064   -1.6625 N.am      2 UNK        -0.4145 
     35 C          27.7309   21.0959   -0.9971 C.2       1 UNK         0.5006 
     36 O          26.5261   20.8407   -1.0702 O.2       1 UNK        -0.5103 
     37 C          27.7572   29.5821    3.9015 C.2       5 UNK         0.5055 
     38 O          27.7926   30.5093    4.7118 O.2       5 UNK        -0.5220 
     39 N          26.6932   29.3270    3.1228 N.am      6 UNK        -0.4450 
     40 CA         25.4985   30.1742    3.0805 C.3       6 UNK         0.0367 
     41 CB         24.3253   29.3908    2.4700 C.3       6 UNK        -0.1929 
     42 C          25.7321   31.4863    2.3100 C.2       6 UNK         0.5070 
     43 O          25.0383   32.4667    2.5816 O.2       6 UNK        -0.5237 
     44 N          26.6941   31.4925    1.3752 N.am      7 UNK        -0.4739 
     45 CA         27.1311   32.6876    0.6546 C.3       7 UNK         0.0276 
     46 CB         27.6582   32.3053   -0.7393 C.3       7 UNK        -0.1927 
     47 C          28.1873   33.4447    1.4716 C.2       7 UNK         0.5013 
     48 O          27.9972   34.6304    1.7461 O.2       7 UNK        -0.5193 
     49 N          29.2582   32.7453    1.8710 N.am      8 UNK        -0.4253 
     50 CA         30.3299   33.2666    2.7160 C.3       8 UNK         0.0242 
     51 CB         31.2141   34.2659    1.9407 C.3       8 UNK        -0.2000 
     52 C          31.1665   32.0939    3.2321 C.2       8 UNK         0.4948 
     53 O          31.8519   31.4436    2.4416 O.2       8 UNK        -0.5275 
     54 N          31.1493   31.8628    4.5503 N.am      9 UNK        -0.4246 
     55 CA         31.9129   30.8121    5.2362 C.3       9 UNK         0.0261 
     56 CB         31.2142   30.4749    6.5667 C.3       9 UNK        -0.1959 
     57 C          33.4037   31.1629    5.4226 C.2       9 UNK         0.5033 
     58 O          33.9664   30.9084    6.4891 O.2       9 UNK        -0.5390 
     59 N          34.0338   31.7171    4.3778 N.am      10 UNK        -0.4215 
     60 CA         35.4536   32.0882    4.3413 C.3       10 UNK         0.0240 
     61 CB         35.7387   32.8742    3.0515 C.3       10 UNK        -0.1982 
     62 C          36.3982   30.8785    4.4623 C.2       10 UNK         0.4970 
     63 O          37.5016   31.0179    4.9906 O.2       10 UNK        -0.4916 
     64 N          35.9302   29.7167    3.9940 N.am      11 UNK        -0.4279 
     65 CA         36.5596   28.4027    4.1643 C.3       11 UNK         0.1003 
     66 C          36.3855   27.7727    5.5795 C.2       11 UNK         0.5709 
     67 N          35.6490   28.3771    6.5060 N.am      11 UNK        -0.7358 
     68 O          36.9461   26.7129    5.8482 O.2       11 UNK        -0.4999 
     69 C69        36.1356   27.4369    3.0258 C.3       12 UNK        -0.0954 
     70 S70        34.3257   27.2664    2.8296 S.3       12 UNK        -0.2268 
     71 C71        34.0668   25.5738    3.4369 C.3       12 UNK         0.0203 
     72 H72        26.7772   17.1480    1.5898 H         1 UNK         0.0888 
     73 H73        26.6931   17.8923    3.1875 H         1 UNK         0.0888 
     74 H74        25.3691   18.1118    2.0397 H         1 UNK         0.0888 
     75 H75        28.1021   18.2449    0.1890 H         1 UNK         0.3017 
     76 H76        29.3436   19.7260   -0.8109 H         1 UNK         0.0873 
     77 H77        28.9677   21.8669    1.3405 H         1 UNK         0.0745 
     78 H78        29.9394   20.4681    1.6535 H         1 UNK         0.0745 
     79 H79        31.3483   24.1320   -0.5369 H         1 UNK         0.0705 
     80 H80        29.7017   23.8448   -0.0628 H         1 UNK         0.0705 
     81 H81        33.1151   24.5176    1.1266 H         1 UNK         0.1334 
     82 H82        31.8948   25.5858    5.0920 H         1 UNK         0.1417 
     83 H83        29.0469   23.9142    2.3604 H         1 UNK         0.1562 
     84 H84        29.7225   24.9298    5.9026 H         1 UNK         0.0748 
     85 H85        28.7374   23.8691    4.9323 H         1 UNK         0.0748 
     86 H86        30.1509   27.3588    5.0192 H         1 UNK         0.0940 
     87 H87        28.8380   28.0994    5.8639 H         1 UNK         0.0940 
     88 H88        29.8545   29.3647    3.8482 H         1 UNK         0.0703 
     89 H89        29.1234   27.0505    2.4404 H         1 UNK         0.3081 
     90 H90        28.7165   28.3945   -0.7878 H         1 UNK         0.0719 
     91 H91        31.1290   26.8519    0.3177 H         1 UNK         0.0809 
     92 H92        30.6060   26.8731   -1.3689 H         1 UNK         0.0809 
     93 H93        31.2024   28.3397   -0.6110 H         1 UNK         0.0809 
     94 H94        28.8461   25.7153   -0.0900 H         1 UNK         0.2990 
     95 H95        26.7417   24.7357    1.6180 H         1 UNK         0.0690 
     96 H96        24.4876   24.1668    0.6860 H         1 UNK         0.0788 
     97 H97        24.5503   25.6046   -0.3335 H         1 UNK         0.0788 
     98 H98        24.5213   25.7629    1.4152 H         1 UNK         0.0788 
     99 H99        27.4124   23.3276    0.0532 H         1 UNK         0.2993 
    100 H100       26.8255   22.5899   -3.0599 H         1 UNK         0.0949 
    101 H101       29.0815   22.9156   -4.0934 H         1 UNK         0.0767 
    102 H102       28.1375   24.3908   -4.1698 H         1 UNK         0.0767 
    103 H103       29.4166   24.2369   -2.9737 H         1 UNK         0.0767 
    104 H104       29.3049   22.2159   -1.5730 H         1 UNK         0.3013 
    105 H105       26.7283   28.5647    2.4507 H         1 UNK         0.3121 
    106 H106       25.2281   30.4365    4.1057 H         1 UNK         0.0774 
    107 H107       24.4917   29.1676    1.4158 H         1 UNK         0.0815 
    108 H108       23.4008   29.9658    2.5353 H         1 UNK         0.0815 
    109 H109       24.1595   28.4481    2.9917 H         1 UNK         0.0815 
    110 H110       27.2578   30.6603    1.2503 H         1 UNK         0.2987 
    111 H111       26.2772   33.3542    0.5115 H         1 UNK         0.0949 
    112 H112       28.5247   31.6461   -0.6894 H         1 UNK         0.0806 
    113 H113       26.8903   31.8018   -1.3266 H         1 UNK         0.0806 
    114 H114       27.9598   33.1939   -1.2953 H         1 UNK         0.0806 
    115 H115       29.3401   31.7635    1.6074 H         1 UNK         0.3010 
    116 H116       29.8808   33.7829    3.5671 H         1 UNK         0.0829 
    117 H117       30.6580   35.1575    1.6520 H         1 UNK         0.0813 
    118 H118       32.0559   34.5975    2.5501 H         1 UNK         0.0813 
    119 H119       31.6235   33.8199    1.0333 H         1 UNK         0.0813 
    120 H120       30.5856   32.4591    5.1401 H         1 UNK         0.3038 
    121 H121       31.8993   29.9112    4.6201 H         1 UNK         0.0769 
    122 H122       31.2517   31.3128    7.2639 H         1 UNK         0.0811 
    123 H123       31.6891   29.6226    7.0547 H         1 UNK         0.0811 
    124 H124       30.1669   30.2149    6.4136 H         1 UNK         0.0811 
    125 H125       33.4965   31.8344    3.5236 H         1 UNK         0.3204 
    126 H126       35.6489   32.7422    5.1938 H         1 UNK         0.0748 
    127 H127       36.7836   33.1846    3.0061 H         1 UNK         0.0771 
    128 H128       35.5361   32.2773    2.1611 H         1 UNK         0.0771 
    129 H129       35.1311   33.7777    2.9950 H         1 UNK         0.0771 
    130 H130       35.0123   29.6998    3.5750 H         1 UNK         0.2980 
    131 H131       37.6359   28.5500    4.0585 H         1 UNK         0.0545 
    132 H132       35.1877   29.2611    6.3280 H         1 UNK         0.3459 
    133 H133       35.5628   27.9474    7.4128 H         1 UNK         0.3459 
    134 H134       36.5968   26.4560    3.1534 H         1 UNK         0.0616 
    135 H135       36.5246   27.8133    2.0786 H         1 UNK         0.0616 
    136 H136       34.2698   25.5380    4.5085 H         1 UNK         0.0634 
    137 H137       34.7806   24.8996    2.9611 H         1 UNK         0.0634 
@<TRIPOS>BOND
     1    1    2 1    
     2    1   72 1    
     3    1   73 1    
     4    1   74 1    
     5    2    3 2    
     6    2    4 am   BACKBONE|DICT|INTERRES
     7    4    5 1    
     8    4   75 1    
     9    5    6 1    
    10    5   35 1    
    11    5   76 1    
    12    6    7 1    
    13    6   77 1    
    14    6   78 1    
    15    7    8 1    
    16    8    9 1    
    17    8   79 1    
    18    8   80 1    
    19    9   10 ar   
    20    9   14 ar   
    21   10   11 ar   
    22   10   81 1    
    23   11   12 ar   
    24   11   71 1    
    25   12   13 ar   
    26   12   82 1    
    27   13   14 ar   
    28   13   15 1    
    29   14   83 1    
    30   15   16 1    
    31   15   84 1    
    32   15   85 1    
    33   16   17 1    
    34   17   18 1    
    35   17   86 1    
    36   17   87 1    
    37   18   19 1    
    38   18   37 1    
    39   18   88 1    
    40   19   20 am   BACKBONE|DICT|INTERRES
    41   19   89 1    
    42   20   21 2    
    43   20   22 1    
    44   22   23 1    
    45   22   24 1    
    46   22   90 1    
    47   23   91 1    
    48   23   92 1    
    49   23   93 1    
    50   24   25 am   BACKBONE|DICT|INTERRES
    51   24   94 1    
    52   25   26 2    
    53   25   27 1    
    54   27   28 1    
    55   27   29 1    
    56   27   95 1    
    57   28   96 1    
    58   28   97 1    
    59   28   98 1    
    60   29   30 am   BACKBONE|DICT|INTERRES
    61   29   99 1    
    62   30   31 2    
    63   30   32 1    
    64   32   33 1    
    65   32   34 1    
    66   32  100 1    
    67   33  101 1    
    68   33  102 1    
    69   33  103 1    
    70   34   35 am   BACKBONE|DICT|INTERRES
    71   34  104 1    
    72   35   36 2    
    73   37   38 2    
    74   37   39 am   BACKBONE|DICT|INTERRES
    75   39   40 1    
    76   39  105 1    
    77   40   41 1    
    78   40   42 1    
    79   40  106 1    
    80   41  107 1    
    81   41  108 1    
    82   41  109 1    
    83   42   43 2    
    84   42   44 am   BACKBONE|DICT|INTERRES
    85   44   45 1    
    86   44  110 1    
    87   45   46 1    
    88   45   47 1    
    89   45  111 1    
    90   46  112 1    
    91   46  113 1    
    92   46  114 1    
    93   47   48 2    
    94   47   49 am   BACKBONE|DICT|INTERRES
    95   49   50 1    
    96   49  115 1    
    97   50   51 1    
    98   50   52 1    
    99   50  116 1    
   100   51  117 1    
   101   51  118 1    
   102   51  119 1    
   103   52   53 2    
   104   52   54 am   BACKBONE|DICT|INTERRES
   105   54   55 1    
   106   54  120 1    
   107   55   56 1    
   108   55   57 1    
   109   55  121 1    
   110   56  122 1    
   111   56  123 1    
   112   56  124 1    
   113   57   58 2    
   114   57   59 am   BACKBONE|DICT|INTERRES
   115   59   60 1    
   116   59  125 1    
   117   60   61 1    
   118   60   62 1    
   119   60  126 1    
   120   61  127 1    
   121   61  128 1    
   122   61  129 1    
   123   62   63 2    
   124   62   64 am   BACKBONE|DICT|INTERRES
   125   64   65 1    
   126   64  130 1    
   127   65   66 1    
   128   65   69 1    
   129   65  131 1    
   130   66   67 am   BACKBONE|DICT|INTERRES
   131   66   68 2    
   132   67  132 1    
   133   67  133 1    
   134   69   70 1    
   135   69  134 1    
   136   69  135 1    
   137   70   71 1    
   138   71  136 1    
   139   71  137 1    
@<TRIPOS>SUBSTRUCTURE
     1 UNK         1 GROUP             0       ****    0 ROOT    
