@<TRIPOS>MOLECULE
3R136
137   139    1
SMALL
USER_CHARGES


@<TRIPOS>ATOM
      1 CA         29.9237   19.9571   -3.5742 C.3       0 UNK        -0.1979 
      2 C          29.4149   21.0166   -2.6083 C.2       0 UNK         0.4864 
      3 O          28.7266   20.6786   -1.6432 O.2       0 UNK        -0.5359 
      4 N          29.7426   22.2913   -2.8688 N.am      1 UNK        -0.4318 
      5 CA         29.3972   23.4975   -2.0979 C.3       1 UNK         0.0824 
      6 C6         29.8769   23.4766   -0.6223 C.3       12 UNK        -0.0944 
      7 S7         31.6843   23.2745   -0.4553 S.3       12 UNK        -0.2672 
      8 C8         32.1401   24.7077    0.5870 C.3       12 UNK         0.0333 
      9 C9         31.8218   24.5799    2.0812 C.ar      12 UNK        -0.0807 
     10 C10        32.4936   25.4160    2.9807 C.ar      12 UNK        -0.0894 
     11 C11        32.2110   25.3729    4.3499 C.ar      12 UNK        -0.0804 
     12 C12        31.2340   24.4949    4.8249 C.ar      12 UNK        -0.0824 
     13 C13        30.5487   23.6583    3.9419 C.ar      12 UNK        -0.0762 
     14 C14        30.8620   23.6891    2.5813 C.ar      12 UNK        -0.0782 
     15 C15        29.4357   22.7536    4.4481 C.3       12 UNK         0.0230 
     16 S16        27.9443   23.7090    4.8783 S.3       12 UNK        -0.2608 
     17 C17        27.4511   24.4369    3.2727 C.3       12 UNK        -0.0989 
     18 CA         28.0442   25.8469    3.0151 C.3       5 UNK         0.0716 
     19 N          27.7401   26.3284    1.6647 N.am      5 UNK        -0.4135 
     20 C          28.2503   27.4483    1.1251 C.2       4 UNK         0.5031 
     21 O          29.0538   28.1764    1.7118 O.2       4 UNK        -0.5229 
     22 CA         27.8101   27.8419   -0.2980 C.3       4 UNK         0.0329 
     23 CB         28.9455   27.5793   -1.2997 C.3       4 UNK        -0.2001 
     24 N          26.5881   27.1676   -0.7461 N.am      4 UNK        -0.4303 
     25 C          25.3613   27.4392   -0.2716 C.2       3 UNK         0.5044 
     26 O          25.1329   28.3377    0.5375 O.2       3 UNK        -0.5152 
     27 CA         24.1833   26.5690   -0.7541 C.3       3 UNK         0.0319 
     28 CB         23.3258   27.3432   -1.7685 C.3       3 UNK        -0.2001 
     29 N          24.5638   25.2810   -1.3405 N.am      3 UNK        -0.4354 
     30 C          25.2324   24.2999   -0.7194 C.2       2 UNK         0.4964 
     31 O          25.6237   24.3698    0.4475 O.2       2 UNK        -0.5047 
     32 CA         25.5866   23.0551   -1.5572 C.3       2 UNK         0.0288 
     33 CB         24.8947   22.9962   -2.9389 C.3       2 UNK        -0.2113 
     34 N          27.0383   22.9234   -1.7131 N.am      2 UNK        -0.4145 
     35 C          27.8974   23.8477   -2.1673 C.2       1 UNK         0.5006 
     36 O          27.5551   24.9498   -2.6005 O.2       1 UNK        -0.5103 
     37 C          27.6241   26.8862    4.0752 C.2       5 UNK         0.5055 
     38 O          26.4350   27.1879    4.1952 O.2       5 UNK        -0.5220 
     39 N          28.6278   27.4355    4.7768 N.am      6 UNK        -0.4450 
     40 CA         28.5502   28.5193    5.7651 C.3       6 UNK         0.0367 
     41 CB         27.6806   28.1100    6.9727 C.3       6 UNK        -0.1929 
     42 C          28.1414   29.8912    5.1840 C.2       6 UNK         0.5070 
     43 O          27.8760   30.8093    5.9614 O.2       6 UNK        -0.5237 
     44 N          28.1148   30.0270    3.8508 N.am      7 UNK        -0.4739 
     45 CA         27.7951   31.2672    3.1361 C.3       7 UNK         0.0276 
     46 CB         26.5903   31.0201    2.2157 C.3       7 UNK        -0.1927 
     47 C          28.9908   31.7948    2.3263 C.2       7 UNK         0.5013 
     48 O          29.0237   32.9891    2.0249 O.2       7 UNK        -0.5193 
     49 N          29.9443   30.9157    1.9847 N.am      8 UNK        -0.4253 
     50 CA         31.2028   31.2397    1.3107 C.3       8 UNK         0.0242 
     51 CB         31.9459   29.9266    1.0073 C.3       8 UNK        -0.2000 
     52 C          32.1033   32.1627    2.1495 C.2       8 UNK         0.4948 
     53 O          32.0299   32.1489    3.3816 O.2       8 UNK        -0.5275 
     54 N          32.9949   32.8980    1.4714 N.am      9 UNK        -0.4246 
     55 CA         34.0197   33.7615    2.0719 C.3       9 UNK         0.0261 
     56 CB         34.4784   34.7947    1.0253 C.3       9 UNK        -0.1959 
     57 C          35.1930   32.9445    2.6558 C.2       9 UNK         0.5033 
     58 O          36.3454   33.1356    2.2615 O.2       9 UNK        -0.5390 
     59 N          34.8640   32.0295    3.5694 N.am      10 UNK        -0.4215 
     60 CA         35.7505   31.0969    4.2541 C.3       10 UNK         0.0240 
     61 CB         36.1541   29.9465    3.3020 C.3       10 UNK        -0.1982 
     62 C          35.0303   30.6331    5.5313 C.2       10 UNK         0.4970 
     63 O          34.3582   31.4467    6.1691 O.2       10 UNK        -0.4916 
     64 N          35.1710   29.3471    5.8769 N.am      11 UNK        -0.4279 
     65 CA         34.4988   28.6699    7.0012 C.3       11 UNK         0.1003 
     66 C          34.9519   29.1374    8.4190 C.2       11 UNK         0.5709 
     67 N          36.0788   29.8256    8.5591 N.am      11 UNK        -0.7358 
     68 O          34.2949   28.8426    9.4150 O.2       11 UNK        -0.4999 
     69 C69        32.9462   28.6242    6.8518 C.3       12 UNK        -0.0954 
     70 S70        32.3528   27.9817    5.2480 S.3       12 UNK        -0.2268 
     71 C71        32.9606   26.2706    5.3198 C.3       12 UNK         0.0203 
     72 H72        30.5461   19.2364   -3.0445 H         1 UNK         0.0888 
     73 H73        29.0854   19.4218   -4.0192 H         1 UNK         0.0888 
     74 H74        30.5169   20.3892   -4.3800 H         1 UNK         0.0888 
     75 H75        30.2944   22.4770   -3.6950 H         1 UNK         0.3017 
     76 H76        29.9205   24.3164   -2.5948 H         1 UNK         0.0873 
     77 H77        29.3938   22.6649   -0.0772 H         1 UNK         0.0745 
     78 H78        29.5767   24.3947   -0.1134 H         1 UNK         0.0745 
     79 H79        31.6584   25.6056    0.1968 H         1 UNK         0.0705 
     80 H80        33.2136   24.8633    0.4691 H         1 UNK         0.0705 
     81 H81        33.2367   26.1122    2.6153 H         1 UNK         0.1334 
     82 H82        30.9928   24.4713    5.8792 H         1 UNK         0.1417 
     83 H83        30.3250   23.0285    1.9215 H         1 UNK         0.1562 
     84 H84        29.7803   22.2164    5.3329 H         1 UNK         0.0748 
     85 H85        29.1784   21.9930    3.7092 H         1 UNK         0.0748 
     86 H86        26.3605   24.4773    3.2385 H         1 UNK         0.0940 
     87 H87        27.7444   23.7549    2.4729 H         1 UNK         0.0940 
     88 H88        29.1298   25.7636    3.0520 H         1 UNK         0.0703 
     89 H89        27.0448   25.8035    1.1468 H         1 UNK         0.3081 
     90 H90        27.6171   28.9161   -0.2951 H         1 UNK         0.0719 
     91 H91        29.2729   26.5408   -1.2801 H         1 UNK         0.0809 
     92 H92        28.6428   27.8180   -2.3194 H         1 UNK         0.0809 
     93 H93        29.8154   28.1942   -1.0700 H         1 UNK         0.0809 
     94 H94        26.7016   26.4190   -1.4226 H         1 UNK         0.2990 
     95 H95        23.5672   26.3563    0.1220 H         1 UNK         0.0690 
     96 H96        22.4316   26.7834   -2.0435 H         1 UNK         0.0788 
     97 H97        23.8811   27.5624   -2.6814 H         1 UNK         0.0788 
     98 H98        22.9929   28.2958   -1.3532 H         1 UNK         0.0788 
     99 H99        24.3241   25.1417   -2.3116 H         1 UNK         0.2993 
    100 H100       25.2523   22.1933   -0.9776 H         1 UNK         0.0949 
    101 H101       23.8092   23.0455   -2.8416 H         1 UNK         0.0767 
    102 H102       25.2115   23.8056   -3.5979 H         1 UNK         0.0767 
    103 H103       25.1236   22.0582   -3.4452 H         1 UNK         0.0767 
    104 H104       27.4452   22.0381   -1.4176 H         1 UNK         0.3013 
    105 H105       29.5680   27.1272    4.5650 H         1 UNK         0.3121 
    106 H106       29.5671   28.6540    6.1350 H         1 UNK         0.0774 
    107 H107       27.7624   28.8398    7.7790 H         1 UNK         0.0815 
    108 H108       26.6253   28.0393    6.7083 H         1 UNK         0.0815 
    109 H109       27.9915   27.1469    7.3775 H         1 UNK         0.0815 
    110 H110       28.3519   29.2237    3.2781 H         1 UNK         0.2987 
    111 H111       27.5225   32.0544    3.8423 H         1 UNK         0.0949 
    112 H112       26.3010   31.9336    1.6945 H         1 UNK         0.0806 
    113 H113       25.7224   30.6787    2.7802 H         1 UNK         0.0806 
    114 H114       26.8104   30.2687    1.4590 H         1 UNK         0.0806 
    115 H115       29.8005   29.9372    2.2068 H         1 UNK         0.3010 
    116 H116       30.9612   31.7424    0.3720 H         1 UNK         0.0829 
    117 H117       32.1901   29.3833    1.9219 H         1 UNK         0.0813 
    118 H118       31.3479   29.2666    0.3803 H         1 UNK         0.0813 
    119 H119       32.8818   30.1125    0.4789 H         1 UNK         0.0813 
    120 H120       33.0193   32.8169    0.4648 H         1 UNK         0.3038 
    121 H121       33.5683   34.3101    2.9015 H         1 UNK         0.0769 
    122 H122       35.2110   35.4823    1.4503 H         1 UNK         0.0811 
    123 H123       33.6426   35.3967    0.6685 H         1 UNK         0.0811 
    124 H124       34.9424   34.3171    0.1613 H         1 UNK         0.0811 
    125 H125       33.8838   31.9767    3.8456 H         1 UNK         0.3204 
    126 H126       36.6483   31.6339    4.5663 H         1 UNK         0.0748 
    127 H127       36.8859   29.2823    3.7629 H         1 UNK         0.0771 
    128 H128       35.2919   29.3468    3.0059 H         1 UNK         0.0771 
    129 H129       36.6148   30.3291    2.3911 H         1 UNK         0.0771 
    130 H130       35.7552   28.7591    5.3016 H         1 UNK         0.2980 
    131 H131       34.8509   27.6398    6.9527 H         1 UNK         0.0545 
    132 H132       36.6354   30.0655    7.7549 H         1 UNK         0.3459 
    133 H133       36.3698   30.1131    9.4802 H         1 UNK         0.3459 
    134 H134       32.5047   28.0061    7.6354 H         1 UNK         0.0616 
    135 H135       32.5236   29.6209    6.9867 H         1 UNK         0.0616 
    136 H136       34.0256   26.2560    5.0845 H         1 UNK         0.0634 
    137 H137       32.8621   25.8905    6.3378 H         1 UNK         0.0634 
@<TRIPOS>BOND
     1    1    2 1    
     2    1   72 1    
     3    1   73 1    
     4    1   74 1    
     5    2    3 2    
     6    2    4 am   BACKBONE|DICT|INTERRES
     7    4    5 1    
     8    4   75 1    
     9    5    6 1    
    10    5   35 1    
    11    5   76 1    
    12    6    7 1    
    13    6   77 1    
    14    6   78 1    
    15    7    8 1    
    16    8    9 1    
    17    8   79 1    
    18    8   80 1    
    19    9   10 ar   
    20    9   14 ar   
    21   10   11 ar   
    22   10   81 1    
    23   11   12 ar   
    24   11   71 1    
    25   12   13 ar   
    26   12   82 1    
    27   13   14 ar   
    28   13   15 1    
    29   14   83 1    
    30   15   16 1    
    31   15   84 1    
    32   15   85 1    
    33   16   17 1    
    34   17   18 1    
    35   17   86 1    
    36   17   87 1    
    37   18   19 1    
    38   18   37 1    
    39   18   88 1    
    40   19   20 am   BACKBONE|DICT|INTERRES
    41   19   89 1    
    42   20   21 2    
    43   20   22 1    
    44   22   23 1    
    45   22   24 1    
    46   22   90 1    
    47   23   91 1    
    48   23   92 1    
    49   23   93 1    
    50   24   25 am   BACKBONE|DICT|INTERRES
    51   24   94 1    
    52   25   26 2    
    53   25   27 1    
    54   27   28 1    
    55   27   29 1    
    56   27   95 1    
    57   28   96 1    
    58   28   97 1    
    59   28   98 1    
    60   29   30 am   BACKBONE|DICT|INTERRES
    61   29   99 1    
    62   30   31 2    
    63   30   32 1    
    64   32   33 1    
    65   32   34 1    
    66   32  100 1    
    67   33  101 1    
    68   33  102 1    
    69   33  103 1    
    70   34   35 am   BACKBONE|DICT|INTERRES
    71   34  104 1    
    72   35   36 2    
    73   37   38 2    
    74   37   39 am   BACKBONE|DICT|INTERRES
    75   39   40 1    
    76   39  105 1    
    77   40   41 1    
    78   40   42 1    
    79   40  106 1    
    80   41  107 1    
    81   41  108 1    
    82   41  109 1    
    83   42   43 2    
    84   42   44 am   BACKBONE|DICT|INTERRES
    85   44   45 1    
    86   44  110 1    
    87   45   46 1    
    88   45   47 1    
    89   45  111 1    
    90   46  112 1    
    91   46  113 1    
    92   46  114 1    
    93   47   48 2    
    94   47   49 am   BACKBONE|DICT|INTERRES
    95   49   50 1    
    96   49  115 1    
    97   50   51 1    
    98   50   52 1    
    99   50  116 1    
   100   51  117 1    
   101   51  118 1    
   102   51  119 1    
   103   52   53 2    
   104   52   54 am   BACKBONE|DICT|INTERRES
   105   54   55 1    
   106   54  120 1    
   107   55   56 1    
   108   55   57 1    
   109   55  121 1    
   110   56  122 1    
   111   56  123 1    
   112   56  124 1    
   113   57   58 2    
   114   57   59 am   BACKBONE|DICT|INTERRES
   115   59   60 1    
   116   59  125 1    
   117   60   61 1    
   118   60   62 1    
   119   60  126 1    
   120   61  127 1    
   121   61  128 1    
   122   61  129 1    
   123   62   63 2    
   124   62   64 am   BACKBONE|DICT|INTERRES
   125   64   65 1    
   126   64  130 1    
   127   65   66 1    
   128   65   69 1    
   129   65  131 1    
   130   66   67 am   BACKBONE|DICT|INTERRES
   131   66   68 2    
   132   67  132 1    
   133   67  133 1    
   134   69   70 1    
   135   69  134 1    
   136   69  135 1    
   137   70   71 1    
   138   71  136 1    
   139   71  137 1    
@<TRIPOS>SUBSTRUCTURE
     1 UNK         1 GROUP             0       ****    0 ROOT    
