@<TRIPOS>MOLECULE
3R136
137   139    1
SMALL
USER_CHARGES


@<TRIPOS>ATOM
      1 CA         31.4280   22.2500   -5.1682 C.3       0 UNK        -0.1979 
      2 C          30.9773   23.1999   -4.0680 C.2       0 UNK         0.4864 
      3 O          31.2329   24.4020   -4.1555 O.2       0 UNK        -0.5359 
      4 N          30.3164   22.6700   -3.0303 N.am      1 UNK        -0.4318 
      5 CA         29.7530   23.4430   -1.9206 C.3       1 UNK         0.0824 
      6 C6         29.4437   22.5299   -0.7046 C.3       12 UNK        -0.0944 
      7 S7         29.2314   23.4712    0.8477 S.3       12 UNK        -0.2672 
      8 C8         30.6506   22.8838    1.8182 C.3       12 UNK         0.0333 
      9 C9         30.8087   23.6900    3.0972 C.ar      12 UNK        -0.0807 
     10 C10        31.8459   24.6186    3.2189 C.ar      12 UNK        -0.0894 
     11 C11        32.0061   25.3551    4.3956 C.ar      12 UNK        -0.0804 
     12 C12        31.1121   25.1641    5.4540 C.ar      12 UNK        -0.0824 
     13 C13        30.0695   24.2374    5.3446 C.ar      12 UNK        -0.0762 
     14 C14        29.9278   23.4979    4.1660 C.ar      12 UNK        -0.0782 
     15 C15        29.1047   24.0232    6.5042 C.3       12 UNK         0.0230 
     16 S16        27.4185   24.6012    6.1223 S.3       12 UNK        -0.2608 
     17 C17        27.6920   26.3810    5.8279 C.3       12 UNK        -0.0989 
     18 CA         27.7083   26.7143    4.3110 C.3       5 UNK         0.0716 
     19 N          26.4516   26.4065    3.6134 N.am      5 UNK        -0.4135 
     20 C          25.2529   26.9761    3.8158 C.2       4 UNK         0.5031 
     21 O          25.0340   27.8167    4.6890 O.2       4 UNK        -0.5229 
     22 CA         24.0979   26.5748    2.8724 C.3       4 UNK         0.0329 
     23 CB         23.4526   27.8211    2.2396 C.3       4 UNK        -0.2001 
     24 N          24.4971   25.6689    1.7918 N.am      4 UNK        -0.4303 
     25 C          24.6823   24.3483    1.8942 C.2       3 UNK         0.5044 
     26 O          24.5091   23.7177    2.9364 O.2       3 UNK        -0.5152 
     27 CA         25.1938   23.6073    0.6441 C.3       3 UNK         0.0319 
     28 CB         24.0295   22.9917   -0.1559 C.3       3 UNK        -0.2001 
     29 N          26.0901   24.3974   -0.2179 N.am      3 UNK        -0.4354 
     30 C          25.8116   25.4529   -1.0026 C.2       2 UNK         0.4964 
     31 O          24.6933   25.9600   -1.0842 O.2       2 UNK        -0.5047 
     32 CA         26.9779   26.0997   -1.7797 C.3       2 UNK         0.0288 
     33 CB         27.2342   27.5265   -1.2641 C.3       2 UNK        -0.2113 
     34 N          28.2269   25.3389   -1.6890 N.am      2 UNK        -0.4145 
     35 C          28.4916   24.2138   -2.3664 C.2       1 UNK         0.5006 
     36 O          27.7550   23.7492   -3.2408 O.2       1 UNK        -0.5103 
     37 C          28.1560   28.1583    4.0086 C.2       5 UNK         0.5055 
     38 O          28.3904   28.9509    4.9218 O.2       5 UNK        -0.5220 
     39 N          28.2492   28.4639    2.7095 N.am      6 UNK        -0.4450 
     40 CA         28.6607   29.7563    2.1637 C.3       6 UNK         0.0367 
     41 CB         27.4138   30.6233    1.9014 C.3       6 UNK        -0.1929 
     42 C          29.5213   29.5478    0.9062 C.2       6 UNK         0.5070 
     43 O          29.4308   30.3332   -0.0374 O.2       6 UNK        -0.5237 
     44 N          30.3241   28.4714    0.8965 N.am      7 UNK        -0.4739 
     45 CA         31.2114   28.1025   -0.2146 C.3       7 UNK         0.0276 
     46 CB         31.7205   26.6687    0.0051 C.3       7 UNK        -0.1927 
     47 C          32.3970   29.0700   -0.3931 C.2       7 UNK         0.5013 
     48 O          32.9263   29.1873   -1.4988 O.2       7 UNK        -0.5193 
     49 N          32.7784   29.7453    0.6938 N.am      8 UNK        -0.4253 
     50 CA         33.7882   30.7901    0.7708 C.3       8 UNK         0.0242 
     51 CB         35.1715   30.1559    1.0045 C.3       8 UNK        -0.2000 
     52 C          33.3999   31.7135    1.9304 C.2       8 UNK         0.4948 
     53 O          32.6013   31.3186    2.7847 O.2       8 UNK        -0.5275 
     54 N          34.0043   32.9078    1.9778 N.am      9 UNK        -0.4246 
     55 CA         33.7831   33.9147    3.0264 C.3       9 UNK         0.0261 
     56 CB         34.5293   35.2060    2.6520 C.3       9 UNK        -0.1959 
     57 C          34.1788   33.4561    4.4451 C.2       9 UNK         0.5033 
     58 O          33.6747   34.0125    5.4213 O.2       9 UNK        -0.5390 
     59 N          35.0631   32.4536    4.5337 N.am      10 UNK        -0.4215 
     60 CA         35.4860   31.8105    5.7769 C.3       10 UNK         0.0240 
     61 CB         36.8104   31.0700    5.5243 C.3       10 UNK        -0.1982 
     62 C          34.4399   30.8446    6.3667 C.2       10 UNK         0.4970 
     63 O          34.5513   30.5162    7.5490 O.2       10 UNK        -0.4916 
     64 N          33.4755   30.3785    5.5590 N.am      11 UNK        -0.4279 
     65 CA         32.4323   29.4355    5.9895 C.3       11 UNK         0.1003 
     66 C          31.3878   30.0966    6.9294 C.2       11 UNK         0.5709 
     67 N          30.8706   29.3551    7.9005 N.am      11 UNK        -0.7358 
     68 O          31.0238   31.2606    6.7724 O.2       11 UNK        -0.4999 
     69 C69        31.7335   28.7410    4.7920 C.3       12 UNK        -0.0954 
     70 S70        32.8875   27.8926    3.6648 S.3       12 UNK        -0.2268 
     71 C71        33.1750   26.3200    4.5328 C.3       12 UNK         0.0203 
     72 H72        31.1490   21.2180   -4.9558 H         1 UNK         0.0888 
     73 H73        30.9756   22.5349   -6.1177 H         1 UNK         0.0888 
     74 H74        32.5112   22.2920   -5.2799 H         1 UNK         0.0888 
     75 H75        30.1058   21.6821   -3.0304 H         1 UNK         0.3017 
     76 H76        30.5119   24.1698   -1.6216 H         1 UNK         0.0873 
     77 H77        30.2548   21.8132   -0.5649 H         1 UNK         0.0745 
     78 H78        28.5498   21.9270   -0.8787 H         1 UNK         0.0745 
     79 H79        30.5136   21.8290    2.0612 H         1 UNK         0.0705 
     80 H80        31.5554   22.9500    1.2117 H         1 UNK         0.0705 
     81 H81        32.5403   24.7611    2.4025 H         1 UNK         0.1334 
     82 H82        31.2361   25.7289    6.3677 H         1 UNK         0.1417 
     83 H83        29.1232   22.7803    4.0762 H         1 UNK         0.1562 
     84 H84        29.4590   24.5257    7.4057 H         1 UNK         0.0748 
     85 H85        29.0659   22.9598    6.7445 H         1 UNK         0.0748 
     86 H86        28.6308   26.6777    6.2991 H         1 UNK         0.0940 
     87 H87        26.9129   26.9452    6.3427 H         1 UNK         0.0940 
     88 H88        28.4671   26.0802    3.8501 H         1 UNK         0.0703 
     89 H89        26.5096   25.6977    2.8983 H         1 UNK         0.3081 
     90 H90        23.3448   26.0740    3.4843 H         1 UNK         0.0719 
     91 H91        23.0710   28.4998    3.0037 H         1 UNK         0.0809 
     92 H92        24.1668   28.3805    1.6337 H         1 UNK         0.0809 
     93 H93        22.6102   27.5517    1.6021 H         1 UNK         0.0809 
     94 H94        24.6057   26.0747    0.8673 H         1 UNK         0.2990 
     95 H95        25.8058   22.7813    1.0107 H         1 UNK         0.0690 
     96 H96        24.3940   22.4197   -1.0092 H         1 UNK         0.0788 
     97 H97        23.3414   23.7507   -0.5291 H         1 UNK         0.0788 
     98 H98        23.4491   22.3101    0.4673 H         1 UNK         0.0788 
     99 H99        27.0568   24.1027   -0.1841 H         1 UNK         0.2993 
    100 H100       26.6771   26.1585   -2.8282 H         1 UNK         0.0949 
    101 H101       27.5041   27.5305   -0.2086 H         1 UNK         0.0767 
    102 H102       28.0368   28.0136   -1.8186 H         1 UNK         0.0767 
    103 H103       26.3456   28.1499   -1.3744 H         1 UNK         0.0767 
    104 H104       28.8812   25.6368   -0.9804 H         1 UNK         0.3013 
    105 H105       28.0293   27.7514    2.0290 H         1 UNK         0.3121 
    106 H106       29.2953   30.2763    2.8845 H         1 UNK         0.0774 
    107 H107       26.7620   30.1726    1.1520 H         1 UNK         0.0815 
    108 H108       26.8308   30.7637    2.8118 H         1 UNK         0.0815 
    109 H109       27.6926   31.6144    1.5415 H         1 UNK         0.0815 
    110 H110       30.3739   27.8962    1.7254 H         1 UNK         0.2987 
    111 H111       30.6268   28.1255   -1.1371 H         1 UNK         0.0949 
    112 H112       30.9016   25.9691    0.1656 H         1 UNK         0.0806 
    113 H113       32.2836   26.3193   -0.8615 H         1 UNK         0.0806 
    114 H114       32.3846   26.6090    0.8677 H         1 UNK         0.0806 
    115 H115       32.2634   29.6179    1.5571 H         1 UNK         0.3010 
    116 H116       33.7884   31.3688   -0.1554 H         1 UNK         0.0829 
    117 H117       35.2004   29.5864    1.9348 H         1 UNK         0.0813 
    118 H118       35.9527   30.9149    1.0578 H         1 UNK         0.0813 
    119 H119       35.4373   29.4784    0.1928 H         1 UNK         0.0813 
    120 H120       34.6524   33.1560    1.2432 H         1 UNK         0.3038 
    121 H121       32.7132   34.1330    3.0497 H         1 UNK         0.0769 
    122 H122       34.1880   35.5998    1.6945 H         1 UNK         0.0811 
    123 H123       35.6063   35.0461    2.5869 H         1 UNK         0.0811 
    124 H124       34.3606   35.9846    3.3975 H         1 UNK         0.0811 
    125 H125       35.4331   32.0728    3.6757 H         1 UNK         0.3204 
    126 H126       35.6670   32.5883    6.5220 H         1 UNK         0.0748 
    127 H127       36.6957   30.2782    4.7826 H         1 UNK         0.0771 
    128 H128       37.5861   31.7510    5.1734 H         1 UNK         0.0771 
    129 H129       37.1802   30.6066    6.4402 H         1 UNK         0.0771 
    130 H130       33.3892   30.7263    4.6112 H         1 UNK         0.2980 
    131 H131       32.9332   28.6554    6.5659 H         1 UNK         0.0545 
    132 H132       31.1616   28.4016    8.0442 H         1 UNK         0.3459 
    133 H133       30.1802   29.7647    8.5097 H         1 UNK         0.3459 
    134 H134       31.1768   29.4741    4.2070 H         1 UNK         0.0616 
    135 H135       30.9992   28.0169    5.1457 H         1 UNK         0.0616 
    136 H136       34.0707   25.8569    4.1165 H         1 UNK         0.0634 
    137 H137       33.3987   26.5133    5.5825 H         1 UNK         0.0634 
@<TRIPOS>BOND
     1    1    2 1    
     2    1   72 1    
     3    1   73 1    
     4    1   74 1    
     5    2    3 2    
     6    2    4 am   BACKBONE|DICT|INTERRES
     7    4    5 1    
     8    4   75 1    
     9    5    6 1    
    10    5   35 1    
    11    5   76 1    
    12    6    7 1    
    13    6   77 1    
    14    6   78 1    
    15    7    8 1    
    16    8    9 1    
    17    8   79 1    
    18    8   80 1    
    19    9   10 ar   
    20    9   14 ar   
    21   10   11 ar   
    22   10   81 1    
    23   11   12 ar   
    24   11   71 1    
    25   12   13 ar   
    26   12   82 1    
    27   13   14 ar   
    28   13   15 1    
    29   14   83 1    
    30   15   16 1    
    31   15   84 1    
    32   15   85 1    
    33   16   17 1    
    34   17   18 1    
    35   17   86 1    
    36   17   87 1    
    37   18   19 1    
    38   18   37 1    
    39   18   88 1    
    40   19   20 am   BACKBONE|DICT|INTERRES
    41   19   89 1    
    42   20   21 2    
    43   20   22 1    
    44   22   23 1    
    45   22   24 1    
    46   22   90 1    
    47   23   91 1    
    48   23   92 1    
    49   23   93 1    
    50   24   25 am   BACKBONE|DICT|INTERRES
    51   24   94 1    
    52   25   26 2    
    53   25   27 1    
    54   27   28 1    
    55   27   29 1    
    56   27   95 1    
    57   28   96 1    
    58   28   97 1    
    59   28   98 1    
    60   29   30 am   BACKBONE|DICT|INTERRES
    61   29   99 1    
    62   30   31 2    
    63   30   32 1    
    64   32   33 1    
    65   32   34 1    
    66   32  100 1    
    67   33  101 1    
    68   33  102 1    
    69   33  103 1    
    70   34   35 am   BACKBONE|DICT|INTERRES
    71   34  104 1    
    72   35   36 2    
    73   37   38 2    
    74   37   39 am   BACKBONE|DICT|INTERRES
    75   39   40 1    
    76   39  105 1    
    77   40   41 1    
    78   40   42 1    
    79   40  106 1    
    80   41  107 1    
    81   41  108 1    
    82   41  109 1    
    83   42   43 2    
    84   42   44 am   BACKBONE|DICT|INTERRES
    85   44   45 1    
    86   44  110 1    
    87   45   46 1    
    88   45   47 1    
    89   45  111 1    
    90   46  112 1    
    91   46  113 1    
    92   46  114 1    
    93   47   48 2    
    94   47   49 am   BACKBONE|DICT|INTERRES
    95   49   50 1    
    96   49  115 1    
    97   50   51 1    
    98   50   52 1    
    99   50  116 1    
   100   51  117 1    
   101   51  118 1    
   102   51  119 1    
   103   52   53 2    
   104   52   54 am   BACKBONE|DICT|INTERRES
   105   54   55 1    
   106   54  120 1    
   107   55   56 1    
   108   55   57 1    
   109   55  121 1    
   110   56  122 1    
   111   56  123 1    
   112   56  124 1    
   113   57   58 2    
   114   57   59 am   BACKBONE|DICT|INTERRES
   115   59   60 1    
   116   59  125 1    
   117   60   61 1    
   118   60   62 1    
   119   60  126 1    
   120   61  127 1    
   121   61  128 1    
   122   61  129 1    
   123   62   63 2    
   124   62   64 am   BACKBONE|DICT|INTERRES
   125   64   65 1    
   126   64  130 1    
   127   65   66 1    
   128   65   69 1    
   129   65  131 1    
   130   66   67 am   BACKBONE|DICT|INTERRES
   131   66   68 2    
   132   67  132 1    
   133   67  133 1    
   134   69   70 1    
   135   69  134 1    
   136   69  135 1    
   137   70   71 1    
   138   71  136 1    
   139   71  137 1    
@<TRIPOS>SUBSTRUCTURE
     1 UNK         1 GROUP             0       ****    0 ROOT    
