@<TRIPOS>MOLECULE
3R136
137   139    1
SMALL
USER_CHARGES


@<TRIPOS>ATOM
      1 CA         27.1730   21.8279    3.2707 C.3       0 UNK        -0.1979 
      2 C          27.5044   21.7419    1.7889 C.2       0 UNK         0.4864 
      3 O          26.7791   21.0932    1.0342 O.2       0 UNK        -0.5359 
      4 N          28.5960   22.3949    1.3666 N.am      1 UNK        -0.4318 
      5 CA         29.0911   22.4054   -0.0200 C.3       1 UNK         0.0824 
      6 C6         30.5656   22.8719   -0.0959 C.3       12 UNK        -0.0944 
      7 S7         31.6669   21.7499    0.8303 S.3       12 UNK        -0.2672 
      8 C8         33.0882   22.8326    1.2050 C.3       12 UNK         0.0333 
      9 C9         32.7865   23.9913    2.1553 C.ar      12 UNK        -0.0807 
     10 C10        33.5103   25.1806    2.0207 C.ar      12 UNK        -0.0894 
     11 C11        33.2780   26.2585    2.8786 C.ar      12 UNK        -0.0804 
     12 C12        32.3083   26.1486    3.8768 C.ar      12 UNK        -0.0824 
     13 C13        31.5757   24.9694    4.0244 C.ar      12 UNK        -0.0762 
     14 C14        31.8303   23.8885    3.1749 C.ar      12 UNK        -0.0782 
     15 C15        30.5126   24.8653    5.1065 C.3       12 UNK         0.0230 
     16 S16        28.8316   24.9950    4.4206 S.3       12 UNK        -0.2608 
     17 C17        28.7798   26.7159    3.8116 C.3       12 UNK        -0.0989 
     18 CA         28.4607   26.7704    2.2883 C.3       5 UNK         0.0716 
     19 N          27.2005   27.4736    2.0061 N.am      5 UNK        -0.4135 
     20 C          26.9679   28.7978    2.0137 C.2       4 UNK         0.5031 
     21 O          27.8424   29.6431    2.2020 O.2       4 UNK        -0.5229 
     22 CA         25.5207   29.2649    1.7501 C.3       4 UNK         0.0329 
     23 CB         25.4631   30.6088    0.9998 C.3       4 UNK        -0.2001 
     24 N          24.7582   28.2709    0.9917 N.am      4 UNK        -0.4303 
     25 C          23.7164   27.5637    1.4497 C.2       3 UNK         0.5044 
     26 O          23.2071   27.7228    2.5592 O.2       3 UNK        -0.5152 
     27 CA         23.1716   26.4600    0.5185 C.3       3 UNK         0.0319 
     28 CB         21.9861   26.9897   -0.3042 C.3       3 UNK        -0.2001 
     29 N          24.1773   25.8875   -0.3902 N.am      3 UNK        -0.4354 
     30 C          25.3049   25.2830    0.0076 C.2       2 UNK         0.4964 
     31 O          25.6216   25.1398    1.1933 O.2       2 UNK        -0.5047 
     32 CA         26.2826   24.8393   -1.0878 C.3       2 UNK         0.0288 
     33 CB         26.8530   26.0513   -1.8540 C.3       2 UNK        -0.2113 
     34 N          27.3463   24.0939   -0.4230 N.am      2 UNK        -0.4145 
     35 C          28.1996   23.2273   -0.9796 C.2       1 UNK         0.5006 
     36 O          28.2947   23.0513   -2.1950 O.2       1 UNK        -0.5103 
     37 C          29.6199   27.2880    1.4073 C.2       5 UNK         0.5055 
     38 O          30.4107   28.1314    1.8368 O.2       5 UNK        -0.5220 
     39 N          29.6157   26.8474    0.1380 N.am      6 UNK        -0.4450 
     40 CA         30.5051   27.2718   -0.9572 C.3       6 UNK         0.0367 
     41 CB         31.9507   26.8036   -0.6951 C.3       6 UNK        -0.1929 
     42 C          30.4327   28.7830   -1.2736 C.2       6 UNK         0.5070 
     43 O          31.3764   29.3339   -1.8408 O.2       6 UNK        -0.5237 
     44 N          29.3203   29.4233   -0.8793 N.am      7 UNK        -0.4739 
     45 CA         29.0544   30.8673   -0.8995 C.3       7 UNK         0.0276 
     46 CB         28.9913   31.4003   -2.3467 C.3       7 UNK        -0.1927 
     47 C          30.0011   31.6880    0.0025 C.2       7 UNK         0.5013 
     48 O          30.1479   32.8916   -0.2192 O.2       7 UNK        -0.5193 
     49 N          30.6171   31.0380    0.9999 N.am      8 UNK        -0.4253 
     50 CA         31.5830   31.6400    1.9205 C.3       8 UNK         0.0242 
     51 CB         32.9781   31.0759    1.6063 C.3       8 UNK        -0.2000 
     52 C          31.2189   31.4319    3.3992 C.2       8 UNK         0.4948 
     53 O          31.8546   32.0587    4.2489 O.2       8 UNK        -0.5275 
     54 N          30.2222   30.5827    3.6961 N.am      9 UNK        -0.4246 
     55 CA         29.6604   30.2370    5.0101 C.3       9 UNK         0.0261 
     56 CB         28.9924   31.4578    5.6719 C.3       9 UNK        -0.1959 
     57 C          30.6316   29.5393    5.9808 C.2       9 UNK         0.5033 
     58 O          30.3027   28.4710    6.4966 O.2       9 UNK        -0.5390 
     59 N          31.7936   30.1495    6.2229 N.am      10 UNK        -0.4215 
     60 CA         32.8240   29.7022    7.1527 C.3       10 UNK         0.0240 
     61 CB         32.4797   30.1634    8.5833 C.3       10 UNK        -0.1982 
     62 C          34.1766   30.2278    6.6596 C.2       10 UNK         0.4970 
     63 O          34.7146   31.1841    7.2209 O.2       10 UNK        -0.4916 
     64 N          34.6780   29.6101    5.5858 N.am      11 UNK        -0.4279 
     65 CA         36.0053   29.8584    5.0057 C.3       11 UNK         0.1003 
     66 C          37.1770   29.4523    5.9463 C.2       11 UNK         0.5709 
     67 N          38.3517   30.0386    5.7570 N.am      11 UNK        -0.7358 
     68 O          37.0427   28.5995    6.8230 O.2       11 UNK        -0.4999 
     69 C69        36.1360   29.2149    3.5972 C.3       12 UNK        -0.0954 
     70 S70        35.6765   27.4467    3.5471 S.3       12 UNK        -0.2268 
     71 C71        34.0607   27.5494    2.7227 C.3       12 UNK         0.0203 
     72 H72        26.4113   22.5885    3.4410 H         1 UNK         0.0888 
     73 H73        26.7904   20.8729    3.6301 H         1 UNK         0.0888 
     74 H74        28.0507   22.0807    3.8650 H         1 UNK         0.0888 
     75 H75        29.1644   22.8914    2.0372 H         1 UNK         0.3017 
     76 H76        29.0511   21.3770   -0.3866 H         1 UNK         0.0873 
     77 H77        30.6628   23.8863    0.2941 H         1 UNK         0.0745 
     78 H78        30.9150   22.9015   -1.1300 H         1 UNK         0.0745 
     79 H79        33.4836   23.2120    0.2613 H         1 UNK         0.0705 
     80 H80        33.8775   22.2241    1.6478 H         1 UNK         0.0705 
     81 H81        34.2616   25.2706    1.2478 H         1 UNK         0.1334 
     82 H82        32.1165   26.9851    4.5348 H         1 UNK         0.1417 
     83 H83        31.2759   22.9706    3.3095 H         1 UNK         0.1562 
     84 H84        30.6515   25.6361    5.8668 H         1 UNK         0.0748 
     85 H85        30.6115   23.9085    5.6212 H         1 UNK         0.0748 
     86 H86        29.7075   27.2269    4.0674 H         1 UNK         0.0940 
     87 H87        28.0126   27.2319    4.3906 H         1 UNK         0.0940 
     88 H88        28.2750   25.7515    1.9466 H         1 UNK         0.0703 
     89 H89        26.4103   26.8572    1.8453 H         1 UNK         0.3081 
     90 H90        25.0735   29.4155    2.7346 H         1 UNK         0.0719 
     91 H91        24.4379   30.9730    0.9324 H         1 UNK         0.0809 
     92 H92        25.8476   30.5207   -0.0158 H         1 UNK         0.0809 
     93 H93        26.0416   31.3800    1.5104 H         1 UNK         0.0809 
     94 H94        25.0827   28.0737    0.0560 H         1 UNK         0.2990 
     95 H95        22.8097   25.6508    1.1564 H         1 UNK         0.0690 
     96 H96        21.5252   26.1967   -0.8935 H         1 UNK         0.0788 
     97 H97        22.2902   27.7841   -0.9871 H         1 UNK         0.0788 
     98 H98        21.2111   27.3984    0.3461 H         1 UNK         0.0788 
     99 H99        23.9923   25.9740   -1.3798 H         1 UNK         0.2993 
    100 H100       25.7600   24.1707   -1.7755 H         1 UNK         0.0949 
    101 H101       27.2129   26.8302   -1.1833 H         1 UNK         0.0767 
    102 H102       27.6732   25.7648   -2.5124 H         1 UNK         0.0767 
    103 H103       26.0882   26.5043   -2.4858 H         1 UNK         0.0767 
    104 H104       27.2579   24.1032    0.5868 H         1 UNK         0.3013 
    105 H105       28.9053   26.1816   -0.1286 H         1 UNK         0.3121 
    106 H106       30.1517   26.7617   -1.8546 H         1 UNK         0.0774 
    107 H107       32.5898   26.9928   -1.5582 H         1 UNK         0.0815 
    108 H108       32.3897   27.3264    0.1538 H         1 UNK         0.0815 
    109 H109       31.9947   25.7346   -0.4922 H         1 UNK         0.0815 
    110 H110       28.6261   28.8702   -0.3999 H         1 UNK         0.2987 
    111 H111       28.0655   30.9977   -0.4620 H         1 UNK         0.0949 
    112 H112       29.9697   31.3848   -2.8275 H         1 UNK         0.0806 
    113 H113       28.3069   30.8116   -2.9573 H         1 UNK         0.0806 
    114 H114       28.6367   32.4315   -2.3695 H         1 UNK         0.0806 
    115 H115       30.4459   30.0429    1.1127 H         1 UNK         0.3010 
    116 H116       31.6195   32.7221    1.7788 H         1 UNK         0.0829 
    117 H117       33.3186   31.4027    0.6236 H         1 UNK         0.0813 
    118 H118       33.7188   31.4104    2.3339 H         1 UNK         0.0813 
    119 H119       32.9740   29.9874    1.6054 H         1 UNK         0.0813 
    120 H120       29.7561   30.1128    2.9258 H         1 UNK         0.3038 
    121 H121       28.8667   29.5197    4.8001 H         1 UNK         0.0769 
    122 H122       29.7102   32.2459    5.9007 H         1 UNK         0.0811 
    123 H123       28.2233   31.8824    5.0265 H         1 UNK         0.0811 
    124 H124       28.5102   31.1767    6.6090 H         1 UNK         0.0811 
    125 H125       31.9928   30.9969    5.6885 H         1 UNK         0.3204 
    126 H126       32.8728   28.6109    7.1455 H         1 UNK         0.0748 
    127 H127       33.2618   29.8728    9.2859 H         1 UNK         0.0771 
    128 H128       32.3700   31.2470    8.6427 H         1 UNK         0.0771 
    129 H129       31.5492   29.7145    8.9311 H         1 UNK         0.0771 
    130 H130       34.1878   28.8144    5.2081 H         1 UNK         0.2980 
    131 H131       36.0828   30.9394    4.8723 H         1 UNK         0.0545 
    132 H132       38.4796   30.7331    5.0376 H         1 UNK         0.3459 
    133 H133       39.1268   29.7825    6.3486 H         1 UNK         0.3459 
    134 H134       35.5134   29.7639    2.8899 H         1 UNK         0.0616 
    135 H135       37.1536   29.3161    3.2158 H         1 UNK         0.0616 
    136 H136       33.4873   28.3749    3.1458 H         1 UNK         0.0634 
    137 H137       34.2096   27.7784    1.6668 H         1 UNK         0.0634 
@<TRIPOS>BOND
     1    1    2 1    
     2    1   72 1    
     3    1   73 1    
     4    1   74 1    
     5    2    3 2    
     6    2    4 am   BACKBONE|DICT|INTERRES
     7    4    5 1    
     8    4   75 1    
     9    5    6 1    
    10    5   35 1    
    11    5   76 1    
    12    6    7 1    
    13    6   77 1    
    14    6   78 1    
    15    7    8 1    
    16    8    9 1    
    17    8   79 1    
    18    8   80 1    
    19    9   10 ar   
    20    9   14 ar   
    21   10   11 ar   
    22   10   81 1    
    23   11   12 ar   
    24   11   71 1    
    25   12   13 ar   
    26   12   82 1    
    27   13   14 ar   
    28   13   15 1    
    29   14   83 1    
    30   15   16 1    
    31   15   84 1    
    32   15   85 1    
    33   16   17 1    
    34   17   18 1    
    35   17   86 1    
    36   17   87 1    
    37   18   19 1    
    38   18   37 1    
    39   18   88 1    
    40   19   20 am   BACKBONE|DICT|INTERRES
    41   19   89 1    
    42   20   21 2    
    43   20   22 1    
    44   22   23 1    
    45   22   24 1    
    46   22   90 1    
    47   23   91 1    
    48   23   92 1    
    49   23   93 1    
    50   24   25 am   BACKBONE|DICT|INTERRES
    51   24   94 1    
    52   25   26 2    
    53   25   27 1    
    54   27   28 1    
    55   27   29 1    
    56   27   95 1    
    57   28   96 1    
    58   28   97 1    
    59   28   98 1    
    60   29   30 am   BACKBONE|DICT|INTERRES
    61   29   99 1    
    62   30   31 2    
    63   30   32 1    
    64   32   33 1    
    65   32   34 1    
    66   32  100 1    
    67   33  101 1    
    68   33  102 1    
    69   33  103 1    
    70   34   35 am   BACKBONE|DICT|INTERRES
    71   34  104 1    
    72   35   36 2    
    73   37   38 2    
    74   37   39 am   BACKBONE|DICT|INTERRES
    75   39   40 1    
    76   39  105 1    
    77   40   41 1    
    78   40   42 1    
    79   40  106 1    
    80   41  107 1    
    81   41  108 1    
    82   41  109 1    
    83   42   43 2    
    84   42   44 am   BACKBONE|DICT|INTERRES
    85   44   45 1    
    86   44  110 1    
    87   45   46 1    
    88   45   47 1    
    89   45  111 1    
    90   46  112 1    
    91   46  113 1    
    92   46  114 1    
    93   47   48 2    
    94   47   49 am   BACKBONE|DICT|INTERRES
    95   49   50 1    
    96   49  115 1    
    97   50   51 1    
    98   50   52 1    
    99   50  116 1    
   100   51  117 1    
   101   51  118 1    
   102   51  119 1    
   103   52   53 2    
   104   52   54 am   BACKBONE|DICT|INTERRES
   105   54   55 1    
   106   54  120 1    
   107   55   56 1    
   108   55   57 1    
   109   55  121 1    
   110   56  122 1    
   111   56  123 1    
   112   56  124 1    
   113   57   58 2    
   114   57   59 am   BACKBONE|DICT|INTERRES
   115   59   60 1    
   116   59  125 1    
   117   60   61 1    
   118   60   62 1    
   119   60  126 1    
   120   61  127 1    
   121   61  128 1    
   122   61  129 1    
   123   62   63 2    
   124   62   64 am   BACKBONE|DICT|INTERRES
   125   64   65 1    
   126   64  130 1    
   127   65   66 1    
   128   65   69 1    
   129   65  131 1    
   130   66   67 am   BACKBONE|DICT|INTERRES
   131   66   68 2    
   132   67  132 1    
   133   67  133 1    
   134   69   70 1    
   135   69  134 1    
   136   69  135 1    
   137   70   71 1    
   138   71  136 1    
   139   71  137 1    
@<TRIPOS>SUBSTRUCTURE
     1 UNK         1 GROUP             0       ****    0 ROOT    
