@<TRIPOS>MOLECULE
3R136
137   139    1
SMALL
USER_CHARGES


@<TRIPOS>ATOM
      1 CA         29.2046   22.4096   -3.7522 C.3       0 UNK        -0.1979 
      2 C          29.0860   22.9150   -2.3231 C.2       0 UNK         0.4864 
      3 O          28.8335   24.1024   -2.1173 O.2       0 UNK        -0.5359 
      4 N          29.2495   22.0213   -1.3367 N.am      1 UNK        -0.4318 
      5 CA         29.2261   22.3007    0.1075 C.3       1 UNK         0.0824 
      6 C6         29.4298   21.0119    0.9391 C.3       12 UNK        -0.0944 
      7 S7         31.1256   20.3693    0.7425 S.3       12 UNK        -0.2672 
      8 C8         31.7824   20.4776    2.4405 C.3       12 UNK         0.0333 
      9 C9         31.7215   21.8878    3.0165 C.ar      12 UNK        -0.0807 
     10 C10        32.5353   22.8995    2.5009 C.ar      12 UNK        -0.0894 
     11 C11        32.5000   24.1857    3.0470 C.ar      12 UNK        -0.0804 
     12 C12        31.6401   24.4584    4.1165 C.ar      12 UNK        -0.0824 
     13 C13        30.8147   23.4560    4.6419 C.ar      12 UNK        -0.0762 
     14 C14        30.8665   22.1739    4.0854 C.ar      12 UNK        -0.0782 
     15 C15        29.8834   23.7061    5.8302 C.3       12 UNK         0.0230 
     16 S16        29.1596   25.3815    5.9266 S.3       12 UNK        -0.2608 
     17 C17        28.2689   25.5128    4.3395 C.3       12 UNK        -0.0989 
     18 CA         28.6396   26.8203    3.5847 C.3       5 UNK         0.0716 
     19 N          28.9255   26.5828    2.1640 N.am      5 UNK        -0.4135 
     20 C          29.5971   27.4488    1.3916 C.2       4 UNK         0.5031 
     21 O          30.0235   28.5272    1.7990 O.2       4 UNK        -0.5229 
     22 CA         29.7916   27.0836   -0.0871 C.3       4 UNK         0.0329 
     23 CB         30.9466   26.0855   -0.2535 C.3       4 UNK        -0.2001 
     24 N          28.5809   26.5614   -0.7238 N.am      4 UNK        -0.4303 
     25 C          27.4413   27.2516   -0.8796 C.2       3 UNK         0.5044 
     26 O          27.2667   28.3917   -0.4519 O.2       3 UNK        -0.5152 
     27 CA         26.2982   26.5472   -1.6234 C.3       3 UNK         0.0319 
     28 CB         26.5332   26.5746   -3.1426 C.3       3 UNK        -0.2001 
     29 N          26.1525   25.1651   -1.1709 N.am      3 UNK        -0.4354 
     30 C          25.4388   24.7979   -0.0973 C.2       2 UNK         0.4964 
     31 O          24.7564   25.5746    0.5708 O.2       2 UNK        -0.5047 
     32 CA         25.5061   23.3161    0.3174 C.3       2 UNK         0.0288 
     33 CB         24.3822   22.5156   -0.3601 C.3       2 UNK        -0.2113 
     34 N          26.7951   22.6779    0.0328 N.am      2 UNK        -0.4145 
     35 C          27.9643   23.0524    0.5730 C.2       1 UNK         0.5006 
     36 O          28.0806   23.9827    1.3707 O.2       1 UNK        -0.5103 
     37 C          27.5878   27.9321    3.8122 C.2       5 UNK         0.5055 
     38 O          27.5212   28.4816    4.9125 O.2       5 UNK        -0.5220 
     39 N          26.7890   28.2493    2.7823 N.am      6 UNK        -0.4450 
     40 CA         25.7849   29.3148    2.8007 C.3       6 UNK         0.0367 
     41 CB         24.6379   28.9350    1.8484 C.3       6 UNK        -0.1929 
     42 C          26.3609   30.6985    2.4398 C.2       6 UNK         0.5070 
     43 O          25.6388   31.6891    2.5647 O.2       6 UNK        -0.5237 
     44 N          27.6223   30.7632    1.9877 N.am      7 UNK        -0.4739 
     45 CA         28.3199   32.0067    1.6490 C.3       7 UNK         0.0276 
     46 CB         29.5863   31.6649    0.8470 C.3       7 UNK        -0.1927 
     47 C          28.6838   32.8294    2.8986 C.2       7 UNK         0.5013 
     48 O          28.7762   32.2796    3.9990 O.2       7 UNK        -0.5193 
     49 N          28.9211   34.1335    2.6951 N.am      8 UNK        -0.4253 
     50 CA         29.3217   35.0843    3.7407 C.3       8 UNK         0.0242 
     51 CB         29.2670   36.5141    3.1778 C.3       8 UNK        -0.2000 
     52 C          30.7095   34.7959    4.3445 C.2       8 UNK         0.4948 
     53 O          30.9325   35.1016    5.5168 O.2       8 UNK        -0.5275 
     54 N          31.6031   34.2028    3.5462 N.am      9 UNK        -0.4246 
     55 CA         32.9071   33.6937    3.9503 C.3       9 UNK         0.0261 
     56 CB         33.9620   34.8127    3.8909 C.3       9 UNK        -0.1959 
     57 C          33.2562   32.5446    3.0006 C.2       9 UNK         0.5033 
     58 O          32.9670   32.6476    1.8051 O.2       9 UNK        -0.5390 
     59 N          33.8662   31.4872    3.5431 N.am      10 UNK        -0.4215 
     60 CA         34.2942   30.2805    2.8378 C.3       10 UNK         0.0240 
     61 CB         33.0828   29.4809    2.2966 C.3       10 UNK        -0.1982 
     62 C          35.1977   29.4819    3.7912 C.2       10 UNK         0.4970 
     63 O          36.1448   30.0539    4.3342 O.2       10 UNK        -0.4916 
     64 N          34.8922   28.1933    3.9808 N.am      11 UNK        -0.4279 
     65 CA         35.5738   27.2559    4.8847 C.3       11 UNK         0.1003 
     66 C          35.5516   27.7133    6.3700 C.2       11 UNK         0.5709 
     67 N          36.6131   27.4453    7.1182 N.am      11 UNK        -0.7358 
     68 O          34.5674   28.2676    6.8567 O.2       11 UNK        -0.4999 
     69 C69        34.9798   25.8284    4.7544 C.3       12 UNK        -0.0954 
     70 S70        35.1032   25.1605    3.0602 S.3       12 UNK        -0.2268 
     71 C71        33.3850   25.2784    2.4670 C.3       12 UNK         0.0203 
     72 H72        30.0075   22.9356   -4.2679 H         1 UNK         0.0888 
     73 H73        29.4174   21.3415   -3.7916 H         1 UNK         0.0888 
     74 H74        28.2759   22.5922   -4.2919 H         1 UNK         0.0888 
     75 H75        29.4677   21.0651   -1.5790 H         1 UNK         0.3017 
     76 H76        30.0660   22.9670    0.3110 H         1 UNK         0.0873 
     77 H77        29.2322   21.1892    1.9974 H         1 UNK         0.0745 
     78 H78        28.7241   20.2374    0.6330 H         1 UNK         0.0745 
     79 H79        32.8193   20.1388    2.4376 H         1 UNK         0.0705 
     80 H80        31.2364   19.7762    3.0734 H         1 UNK         0.0705 
     81 H81        33.2005   22.6832    1.6758 H         1 UNK         0.1334 
     82 H82        31.6159   25.4519    4.5412 H         1 UNK         0.1417 
     83 H83        30.2423   21.3900    4.4929 H         1 UNK         0.1562 
     84 H84        30.4417   23.5193    6.7483 H         1 UNK         0.0748 
     85 H85        29.0613   22.9885    5.8200 H         1 UNK         0.0748 
     86 H86        27.1955   25.4265    4.5208 H         1 UNK         0.0940 
     87 H87        28.5238   24.6380    3.7438 H         1 UNK         0.0940 
     88 H88        29.5700   27.2072    4.0074 H         1 UNK         0.0703 
     89 H89        28.6048   25.6984    1.7724 H         1 UNK         0.3081 
     90 H90        30.0616   27.9991   -0.6180 H         1 UNK         0.0719 
     91 H91        31.0826   25.8010   -1.2971 H         1 UNK         0.0809 
     92 H92        31.8837   26.5275    0.0855 H         1 UNK         0.0809 
     93 H93        30.7835   25.1765    0.3251 H         1 UNK         0.0809 
     94 H94        28.6482   25.6357   -1.1440 H         1 UNK         0.2990 
     95 H95        25.3754   27.0949   -1.4189 H         1 UNK         0.0690 
     96 H96        26.6286   27.6001   -3.5022 H         1 UNK         0.0788 
     97 H97        25.7006   26.1195   -3.6791 H         1 UNK         0.0788 
     98 H98        27.4432   26.0443   -3.4256 H         1 UNK         0.0788 
     99 H99        26.7408   24.4780   -1.6258 H         1 UNK         0.2993 
    100 H100       25.3518   23.2776    1.3981 H         1 UNK         0.0949 
    101 H101       24.4984   22.4937   -1.4445 H         1 UNK         0.0767 
    102 H102       24.3567   21.4859   -0.0029 H         1 UNK         0.0767 
    103 H103       23.4067   22.9549   -0.1456 H         1 UNK         0.0767 
    104 H104       26.7934   21.9150   -0.6286 H         1 UNK         0.3013 
    105 H105       26.9267   27.7807    1.8970 H         1 UNK         0.3121 
    106 H106       25.3688   29.3940    3.8073 H         1 UNK         0.0774 
    107 H107       24.9733   28.8716    0.8132 H         1 UNK         0.0815 
    108 H108       23.8380   29.6756    1.8851 H         1 UNK         0.0815 
    109 H109       24.1999   27.9734    2.1169 H         1 UNK         0.0815 
    110 H110       28.1688   29.9127    1.9385 H         1 UNK         0.2987 
    111 H111       27.6568   32.6046    1.0197 H         1 UNK         0.0949 
    112 H112       30.3205   31.1445    1.4628 H         1 UNK         0.0806 
    113 H113       29.3583   31.0300   -0.0097 H         1 UNK         0.0806 
    114 H114       30.0685   32.5652    0.4647 H         1 UNK         0.0806 
    115 H115       28.8268   34.5051    1.7604 H         1 UNK         0.3010 
    116 H116       28.5943   35.0091    4.5521 H         1 UNK         0.0829 
    117 H117       29.5350   37.2443    3.9429 H         1 UNK         0.0813 
    118 H118       29.9581   36.6479    2.3446 H         1 UNK         0.0813 
    119 H119       28.2654   36.7667    2.8295 H         1 UNK         0.0813 
    120 H120       31.3421   33.9601    2.5986 H         1 UNK         0.3038 
    121 H121       32.8416   33.3061    4.9696 H         1 UNK         0.0769 
    122 H122       34.0499   35.2289    2.8864 H         1 UNK         0.0811 
    123 H123       34.9453   34.4382    4.1778 H         1 UNK         0.0811 
    124 H124       33.7144   35.6284    4.5705 H         1 UNK         0.0811 
    125 H125       34.1183   31.5129    4.5231 H         1 UNK         0.3204 
    126 H126       34.9159   30.5821    1.9925 H         1 UNK         0.0748 
    127 H127       32.5038   30.0652    1.5826 H         1 UNK         0.0771 
    128 H128       33.3993   28.5848    1.7617 H         1 UNK         0.0771 
    129 H129       32.4028   29.1799    3.0948 H         1 UNK         0.0771 
    130 H130       34.0853   27.8253    3.5040 H         1 UNK         0.2980 
    131 H131       36.6172   27.2203    4.5654 H         1 UNK         0.0545 
    132 H132       36.6102   27.7207    8.0879 H         1 UNK         0.3459 
    133 H133       37.4197   26.9790    6.7326 H         1 UNK         0.3459 
    134 H134       35.5125   25.1369    5.4099 H         1 UNK         0.0616 
    135 H135       33.9409   25.8137    5.0855 H         1 UNK         0.0616 
    136 H136       32.9764   26.2646    2.6894 H         1 UNK         0.0634 
    137 H137       33.3952   25.1901    1.3802 H         1 UNK         0.0634 
@<TRIPOS>BOND
     1    1    2 1    
     2    1   72 1    
     3    1   73 1    
     4    1   74 1    
     5    2    3 2    
     6    2    4 am   BACKBONE|DICT|INTERRES
     7    4    5 1    
     8    4   75 1    
     9    5    6 1    
    10    5   35 1    
    11    5   76 1    
    12    6    7 1    
    13    6   77 1    
    14    6   78 1    
    15    7    8 1    
    16    8    9 1    
    17    8   79 1    
    18    8   80 1    
    19    9   10 ar   
    20    9   14 ar   
    21   10   11 ar   
    22   10   81 1    
    23   11   12 ar   
    24   11   71 1    
    25   12   13 ar   
    26   12   82 1    
    27   13   14 ar   
    28   13   15 1    
    29   14   83 1    
    30   15   16 1    
    31   15   84 1    
    32   15   85 1    
    33   16   17 1    
    34   17   18 1    
    35   17   86 1    
    36   17   87 1    
    37   18   19 1    
    38   18   37 1    
    39   18   88 1    
    40   19   20 am   BACKBONE|DICT|INTERRES
    41   19   89 1    
    42   20   21 2    
    43   20   22 1    
    44   22   23 1    
    45   22   24 1    
    46   22   90 1    
    47   23   91 1    
    48   23   92 1    
    49   23   93 1    
    50   24   25 am   BACKBONE|DICT|INTERRES
    51   24   94 1    
    52   25   26 2    
    53   25   27 1    
    54   27   28 1    
    55   27   29 1    
    56   27   95 1    
    57   28   96 1    
    58   28   97 1    
    59   28   98 1    
    60   29   30 am   BACKBONE|DICT|INTERRES
    61   29   99 1    
    62   30   31 2    
    63   30   32 1    
    64   32   33 1    
    65   32   34 1    
    66   32  100 1    
    67   33  101 1    
    68   33  102 1    
    69   33  103 1    
    70   34   35 am   BACKBONE|DICT|INTERRES
    71   34  104 1    
    72   35   36 2    
    73   37   38 2    
    74   37   39 am   BACKBONE|DICT|INTERRES
    75   39   40 1    
    76   39  105 1    
    77   40   41 1    
    78   40   42 1    
    79   40  106 1    
    80   41  107 1    
    81   41  108 1    
    82   41  109 1    
    83   42   43 2    
    84   42   44 am   BACKBONE|DICT|INTERRES
    85   44   45 1    
    86   44  110 1    
    87   45   46 1    
    88   45   47 1    
    89   45  111 1    
    90   46  112 1    
    91   46  113 1    
    92   46  114 1    
    93   47   48 2    
    94   47   49 am   BACKBONE|DICT|INTERRES
    95   49   50 1    
    96   49  115 1    
    97   50   51 1    
    98   50   52 1    
    99   50  116 1    
   100   51  117 1    
   101   51  118 1    
   102   51  119 1    
   103   52   53 2    
   104   52   54 am   BACKBONE|DICT|INTERRES
   105   54   55 1    
   106   54  120 1    
   107   55   56 1    
   108   55   57 1    
   109   55  121 1    
   110   56  122 1    
   111   56  123 1    
   112   56  124 1    
   113   57   58 2    
   114   57   59 am   BACKBONE|DICT|INTERRES
   115   59   60 1    
   116   59  125 1    
   117   60   61 1    
   118   60   62 1    
   119   60  126 1    
   120   61  127 1    
   121   61  128 1    
   122   61  129 1    
   123   62   63 2    
   124   62   64 am   BACKBONE|DICT|INTERRES
   125   64   65 1    
   126   64  130 1    
   127   65   66 1    
   128   65   69 1    
   129   65  131 1    
   130   66   67 am   BACKBONE|DICT|INTERRES
   131   66   68 2    
   132   67  132 1    
   133   67  133 1    
   134   69   70 1    
   135   69  134 1    
   136   69  135 1    
   137   70   71 1    
   138   71  136 1    
   139   71  137 1    
@<TRIPOS>SUBSTRUCTURE
     1 UNK         1 GROUP             0       ****    0 ROOT    
