@<TRIPOS>MOLECULE
3R136
137   139    1
SMALL
USER_CHARGES


@<TRIPOS>ATOM
      1 CA         26.4102   24.3134    5.3803 C.3       0 UNK        -0.1979 
      2 C          25.9966   23.3344    4.2915 C.2       0 UNK         0.4864 
      3 O          24.9013   22.7733    4.3554 O.2       0 UNK        -0.5359 
      4 N          26.8718   23.1139    3.3022 N.am      1 UNK        -0.4318 
      5 CA         26.6320   22.2497    2.1435 C.3       1 UNK         0.0824 
      6 C6         27.9480   21.8939    1.4019 C.3       12 UNK        -0.0944 
      7 S7         28.9825   23.3341    0.9527 S.3       12 UNK        -0.2672 
      8 C8         30.5859   22.8364    1.6708 C.3       12 UNK         0.0333 
      9 C9         31.6577   23.8997    1.4692 C.ar      12 UNK        -0.0807 
     10 C10        32.3406   24.4451    2.5622 C.ar      12 UNK        -0.0894 
     11 C11        33.3225   25.4231    2.3698 C.ar      12 UNK        -0.0804 
     12 C12        33.6009   25.8746    1.0752 C.ar      12 UNK        -0.0824 
     13 C13        32.9314   25.3301   -0.0250 C.ar      12 UNK        -0.0762 
     14 C14        31.9816   24.3257    0.1792 C.ar      12 UNK        -0.0782 
     15 C15        33.2441   25.8083   -1.4367 C.3       12 UNK         0.0230 
     16 S16        32.3703   27.3511   -1.8648 S.3       12 UNK        -0.2608 
     17 C17        30.6139   26.8425   -1.8132 C.3       12 UNK        -0.0989 
     18 CA         29.6831   27.7472   -0.9631 C.3       5 UNK         0.0716 
     19 N          28.3072   27.2463   -1.0244 N.am      5 UNK        -0.4135 
     20 C          27.2029   27.9501   -0.7413 C.2       4 UNK         0.5031 
     21 O          27.2173   29.1459   -0.4467 O.2       4 UNK        -0.5229 
     22 CA         25.8635   27.1837   -0.7428 C.3       4 UNK         0.0329 
     23 CB         24.7174   28.0064   -1.3687 C.3       4 UNK        -0.2001 
     24 N          25.9318   25.8341   -1.3251 N.am      4 UNK        -0.4303 
     25 C          26.1669   25.5031   -2.6073 C.2       3 UNK         0.5044 
     26 O          26.3876   26.3244   -3.4970 O.2       3 UNK        -0.5152 
     27 CA         26.2025   24.0027   -2.9632 C.3       3 UNK         0.0319 
     28 CB         27.6567   23.5368   -3.1505 C.3       3 UNK        -0.2001 
     29 N          25.5585   23.1433   -1.9679 N.am      3 UNK        -0.4354 
     30 C          24.2463   23.1239   -1.6928 C.2       2 UNK         0.4964 
     31 O          23.4046   23.7507   -2.3368 O.2       2 UNK        -0.5047 
     32 CA         23.7936   22.2887   -0.4790 C.3       2 UNK         0.0288 
     33 CB         23.1233   20.9855   -0.9451 C.3       2 UNK        -0.2113 
     34 N          24.8580   21.9617    0.4807 N.am      2 UNK        -0.4145 
     35 C          25.5800   22.8475    1.1847 C.2       1 UNK         0.5006 
     36 O          25.4738   24.0718    1.0597 O.2       1 UNK        -0.5103 
     37 C          30.1445   27.9473    0.5019 C.2       5 UNK         0.5055 
     38 O          30.9889   28.8080    0.7584 O.2       5 UNK        -0.5220 
     39 N          29.5324   27.2173    1.4490 N.am      6 UNK        -0.4450 
     40 CA         29.7373   27.3257    2.8970 C.3       6 UNK         0.0367 
     41 CB         29.1820   26.0618    3.5770 C.3       6 UNK        -0.1929 
     42 C          29.1494   28.6143    3.5141 C.2       6 UNK         0.5070 
     43 O          28.4254   28.5513    4.5101 O.2       6 UNK        -0.5237 
     44 N          29.4605   29.7720    2.9230 N.am      7 UNK        -0.4739 
     45 CA         28.9894   31.0978    3.3243 C.3       7 UNK         0.0276 
     46 CB         29.0320   32.0311    2.1003 C.3       7 UNK        -0.1927 
     47 C          29.7740   31.6459    4.5317 C.2       7 UNK         0.5013 
     48 O          30.4169   32.6933    4.4260 O.2       7 UNK        -0.5193 
     49 N          29.7073   30.9125    5.6531 N.am      8 UNK        -0.4253 
     50 CA         30.2754   31.2137    6.9723 C.3       8 UNK         0.0242 
     51 CB         29.4066   32.2741    7.6860 C.3       8 UNK        -0.2000 
     52 C          31.7696   31.5819    6.9032 C.2       8 UNK         0.4948 
     53 O          32.6038   30.6929    6.7249 O.2       8 UNK        -0.5275 
     54 N          32.0727   32.8848    7.0017 N.am      9 UNK        -0.4246 
     55 CA         33.4103   33.4775    6.9169 C.3       9 UNK         0.0261 
     56 CB         33.3024   34.9955    7.1335 C.3       9 UNK        -0.1959 
     57 C          34.1697   33.1746    5.6119 C.2       9 UNK         0.5033 
     58 O          35.4004   33.2304    5.6204 O.2       9 UNK        -0.5390 
     59 N          33.4537   32.8139    4.5343 N.am      10 UNK        -0.4215 
     60 CA         34.0287   32.3361    3.2709 C.3       10 UNK         0.0240 
     61 CB         32.9020   32.0868    2.2573 C.3       10 UNK        -0.1982 
     62 C          34.8991   31.0718    3.4167 C.2       10 UNK         0.4970 
     63 O          35.8113   30.8826    2.6110 O.2       10 UNK        -0.4916 
     64 N          34.6249   30.2516    4.4402 N.am      11 UNK        -0.4279 
     65 CA         35.4382   29.0860    4.8159 C.3       11 UNK         0.1003 
     66 C          36.6728   29.4359    5.6989 C.2       11 UNK         0.5709 
     67 N          36.9035   30.6876    6.0810 N.am      11 UNK        -0.7358 
     68 O          37.4553   28.5495    6.0336 O.2       11 UNK        -0.4999 
     69 C69        34.5731   27.9694    5.4571 C.3       12 UNK        -0.0954 
     70 S70        33.2689   27.3822    4.3281 S.3       12 UNK        -0.2268 
     71 C71        34.1071   25.9687    3.5541 C.3       12 UNK         0.0203 
     72 H72        26.0517   23.9736    6.3517 H         1 UNK         0.0888 
     73 H73        27.4935   24.4122    5.4420 H         1 UNK         0.0888 
     74 H74        25.9840   25.2969    5.1839 H         1 UNK         0.0888 
     75 H75        27.7424   23.6232    3.2771 H         1 UNK         0.3017 
     76 H76        26.2147   21.3163    2.5288 H         1 UNK         0.0873 
     77 H77        27.7454   21.3189    0.4963 H         1 UNK         0.0745 
     78 H78        28.5318   21.2242    2.0353 H         1 UNK         0.0745 
     79 H79        30.9158   21.9061    1.2063 H         1 UNK         0.0705 
     80 H80        30.4501   22.6260    2.7328 H         1 UNK         0.0705 
     81 H81        32.1153   24.1062    3.5641 H         1 UNK         0.1334 
     82 H82        34.3461   26.6434    0.9217 H         1 UNK         0.1417 
     83 H83        31.4727   23.8831   -0.6661 H         1 UNK         0.1562 
     84 H84        32.9924   25.0386   -2.1681 H         1 UNK         0.0748 
     85 H85        34.3179   25.9759   -1.5335 H         1 UNK         0.0748 
     86 H86        30.5308   25.8098   -1.4818 H         1 UNK         0.0940 
     87 H87        30.2576   26.8367   -2.8448 H         1 UNK         0.0940 
     88 H88        29.6890   28.7383   -1.4222 H         1 UNK         0.0703 
     89 H89        28.1900   26.2750   -1.2692 H         1 UNK         0.3081 
     90 H90        25.6145   27.0312    0.3086 H         1 UNK         0.0719 
     91 H91        24.5613   28.9381   -0.8235 H         1 UNK         0.0809 
     92 H92        24.9255   28.2712   -2.4057 H         1 UNK         0.0809 
     93 H93        23.7762   27.4572   -1.3442 H         1 UNK         0.0809 
     94 H94        25.7764   25.0818   -0.6593 H         1 UNK         0.2990 
     95 H95        25.6743   23.8793   -3.9110 H         1 UNK         0.0690 
     96 H96        28.1679   24.1397   -3.9026 H         1 UNK         0.0788 
     97 H97        27.7007   22.5007   -3.4867 H         1 UNK         0.0788 
     98 H98        28.2302   23.6138   -2.2256 H         1 UNK         0.0788 
     99 H99        26.1697   22.5802   -1.3956 H         1 UNK         0.2993 
    100 H100       23.0496   22.8860    0.0527 H         1 UNK         0.0949 
    101 H101       22.7026   20.4319   -0.1053 H         1 UNK         0.0767 
    102 H102       22.3039   21.1917   -1.6355 H         1 UNK         0.0767 
    103 H103       23.8275   20.3318   -1.4616 H         1 UNK         0.0767 
    104 H104       25.0229   20.9770    0.6351 H         1 UNK         0.3013 
    105 H105       28.8370   26.5501    1.1516 H         1 UNK         0.3121 
    106 H106       30.8111   27.3535    3.0699 H         1 UNK         0.0774 
    107 H107       28.1061   25.9693    3.4266 H         1 UNK         0.0815 
    108 H108       29.6581   25.1627    3.1939 H         1 UNK         0.0815 
    109 H109       29.3660   26.0828    4.6520 H         1 UNK         0.0815 
    110 H110       30.0873   29.7242    2.1228 H         1 UNK         0.2987 
    111 H111       27.9455   31.0186    3.6362 H         1 UNK         0.0949 
    112 H112       28.6823   33.0319    2.3571 H         1 UNK         0.0806 
    113 H113       30.0395   32.1291    1.6978 H         1 UNK         0.0806 
    114 H114       28.3901   31.6599    1.3007 H         1 UNK         0.0806 
    115 H115       29.2002   30.0345    5.5807 H         1 UNK         0.3010 
    116 H116       30.2175   30.2926    7.5544 H         1 UNK         0.0829 
    117 H117       29.3245   33.1987    7.1134 H         1 UNK         0.0813 
    118 H118       28.3947   31.9014    7.8457 H         1 UNK         0.0813 
    119 H119       29.8111   32.5222    8.6685 H         1 UNK         0.0813 
    120 H120       31.3040   33.5321    7.1009 H         1 UNK         0.3038 
    121 H121       34.0006   33.0558    7.7329 H         1 UNK         0.0769 
    122 H122       32.6932   35.4702    6.3631 H         1 UNK         0.0811 
    123 H123       34.2868   35.4653    7.1056 H         1 UNK         0.0811 
    124 H124       32.8627   35.2294    8.1032 H         1 UNK         0.0811 
    125 H125       32.4396   32.8046    4.6069 H         1 UNK         0.3204 
    126 H126       34.6696   33.1308    2.8838 H         1 UNK         0.0748 
    127 H127       33.3053   31.7894    1.2882 H         1 UNK         0.0771 
    128 H128       32.2346   31.2899    2.5881 H         1 UNK         0.0771 
    129 H129       32.3057   32.9854    2.0987 H         1 UNK         0.0771 
    130 H130       33.8682   30.4794    5.0762 H         1 UNK         0.2980 
    131 H131       35.8614   28.6666    3.9013 H         1 UNK         0.0545 
    132 H132       36.2924   31.4488    5.8066 H         1 UNK         0.3459 
    133 H133       37.7149   30.8817    6.6456 H         1 UNK         0.3459 
    134 H134       34.0976   28.3343    6.3690 H         1 UNK         0.0616 
    135 H135       35.1862   27.1167    5.7546 H         1 UNK         0.0616 
    136 H136       35.1029   26.2741    3.2290 H         1 UNK         0.0634 
    137 H137       34.2534   25.1857    4.2997 H         1 UNK         0.0634 
@<TRIPOS>BOND
     1    1    2 1    
     2    1   72 1    
     3    1   73 1    
     4    1   74 1    
     5    2    3 2    
     6    2    4 am   BACKBONE|DICT|INTERRES
     7    4    5 1    
     8    4   75 1    
     9    5    6 1    
    10    5   35 1    
    11    5   76 1    
    12    6    7 1    
    13    6   77 1    
    14    6   78 1    
    15    7    8 1    
    16    8    9 1    
    17    8   79 1    
    18    8   80 1    
    19    9   10 ar   
    20    9   14 ar   
    21   10   11 ar   
    22   10   81 1    
    23   11   12 ar   
    24   11   71 1    
    25   12   13 ar   
    26   12   82 1    
    27   13   14 ar   
    28   13   15 1    
    29   14   83 1    
    30   15   16 1    
    31   15   84 1    
    32   15   85 1    
    33   16   17 1    
    34   17   18 1    
    35   17   86 1    
    36   17   87 1    
    37   18   19 1    
    38   18   37 1    
    39   18   88 1    
    40   19   20 am   BACKBONE|DICT|INTERRES
    41   19   89 1    
    42   20   21 2    
    43   20   22 1    
    44   22   23 1    
    45   22   24 1    
    46   22   90 1    
    47   23   91 1    
    48   23   92 1    
    49   23   93 1    
    50   24   25 am   BACKBONE|DICT|INTERRES
    51   24   94 1    
    52   25   26 2    
    53   25   27 1    
    54   27   28 1    
    55   27   29 1    
    56   27   95 1    
    57   28   96 1    
    58   28   97 1    
    59   28   98 1    
    60   29   30 am   BACKBONE|DICT|INTERRES
    61   29   99 1    
    62   30   31 2    
    63   30   32 1    
    64   32   33 1    
    65   32   34 1    
    66   32  100 1    
    67   33  101 1    
    68   33  102 1    
    69   33  103 1    
    70   34   35 am   BACKBONE|DICT|INTERRES
    71   34  104 1    
    72   35   36 2    
    73   37   38 2    
    74   37   39 am   BACKBONE|DICT|INTERRES
    75   39   40 1    
    76   39  105 1    
    77   40   41 1    
    78   40   42 1    
    79   40  106 1    
    80   41  107 1    
    81   41  108 1    
    82   41  109 1    
    83   42   43 2    
    84   42   44 am   BACKBONE|DICT|INTERRES
    85   44   45 1    
    86   44  110 1    
    87   45   46 1    
    88   45   47 1    
    89   45  111 1    
    90   46  112 1    
    91   46  113 1    
    92   46  114 1    
    93   47   48 2    
    94   47   49 am   BACKBONE|DICT|INTERRES
    95   49   50 1    
    96   49  115 1    
    97   50   51 1    
    98   50   52 1    
    99   50  116 1    
   100   51  117 1    
   101   51  118 1    
   102   51  119 1    
   103   52   53 2    
   104   52   54 am   BACKBONE|DICT|INTERRES
   105   54   55 1    
   106   54  120 1    
   107   55   56 1    
   108   55   57 1    
   109   55  121 1    
   110   56  122 1    
   111   56  123 1    
   112   56  124 1    
   113   57   58 2    
   114   57   59 am   BACKBONE|DICT|INTERRES
   115   59   60 1    
   116   59  125 1    
   117   60   61 1    
   118   60   62 1    
   119   60  126 1    
   120   61  127 1    
   121   61  128 1    
   122   61  129 1    
   123   62   63 2    
   124   62   64 am   BACKBONE|DICT|INTERRES
   125   64   65 1    
   126   64  130 1    
   127   65   66 1    
   128   65   69 1    
   129   65  131 1    
   130   66   67 am   BACKBONE|DICT|INTERRES
   131   66   68 2    
   132   67  132 1    
   133   67  133 1    
   134   69   70 1    
   135   69  134 1    
   136   69  135 1    
   137   70   71 1    
   138   71  136 1    
   139   71  137 1    
@<TRIPOS>SUBSTRUCTURE
     1 UNK         1 GROUP             0       ****    0 ROOT    
