@<TRIPOS>MOLECULE
3R136
137   139    1
SMALL
USER_CHARGES


@<TRIPOS>ATOM
      1 CA         28.0693   20.2011    5.5804 C.3       0 UNK        -0.1979 
      2 C          27.6002   20.5685    4.1801 C.2       0 UNK         0.4864 
      3 O          26.5281   20.1297    3.7596 O.2       0 UNK        -0.5359 
      4 N          28.3989   21.3613    3.4546 N.am      1 UNK        -0.4318 
      5 CA         28.0847   21.8596    2.1114 C.3       1 UNK         0.0824 
      6 C6         29.3503   22.3493    1.3706 C.3       12 UNK        -0.0944 
      7 S7         30.4796   20.9706    0.9811 S.3       12 UNK        -0.2672 
      8 C8         32.0290   21.5142    1.7748 C.3       12 UNK         0.0333 
      9 C9         32.5142   22.8757    1.2848 C.ar      12 UNK        -0.0807 
     10 C10        32.9614   23.8242    2.2083 C.ar      12 UNK        -0.0894 
     11 C11        33.4110   25.0764    1.7814 C.ar      12 UNK        -0.0804 
     12 C12        33.4047   25.3830    0.4167 C.ar      12 UNK        -0.0824 
     13 C13        32.9626   24.4423   -0.5208 C.ar      12 UNK        -0.0762 
     14 C14        32.5296   23.1889   -0.0789 C.ar      12 UNK        -0.0782 
     15 C15        32.9849   24.7455   -2.0156 C.3       12 UNK         0.0230 
     16 S16        32.2186   26.3388   -2.4564 S.3       12 UNK        -0.2608 
     17 C17        30.4704   26.0880   -1.9911 C.3       12 UNK        -0.0989 
     18 CA         29.7960   27.4325   -1.6165 C.3       5 UNK         0.0716 
     19 N          28.3430   27.4090   -1.8091 N.am      5 UNK        -0.4135 
     20 C          27.6850   28.1450   -2.7189 C.2       4 UNK         0.5031 
     21 O          28.2368   28.8397   -3.5735 O.2       4 UNK        -0.5229 
     22 CA         26.1437   28.1245   -2.6739 C.3       4 UNK         0.0329 
     23 CB         25.5915   27.0887   -3.6666 C.3       4 UNK        -0.2001 
     24 N          25.6022   27.8478   -1.3428 N.am      4 UNK        -0.4303 
     25 C          25.7725   28.6180   -0.2584 C.2       3 UNK         0.5044 
     26 O          26.2819   29.7365   -0.2930 O.2       3 UNK        -0.5152 
     27 CA         25.3326   28.0370    1.1002 C.3       3 UNK         0.0319 
     28 CB         24.1065   28.7926    1.6375 C.3       3 UNK        -0.2001 
     29 N          25.0448   26.5966    1.0988 N.am      3 UNK        -0.4354 
     30 C          25.9057   25.6156    0.7935 C.2       2 UNK         0.4964 
     31 O          27.0686   25.8056    0.4185 O.2       2 UNK        -0.5047 
     32 CA         25.3194   24.1953    0.8216 C.3       2 UNK         0.0288 
     33 CB         24.5811   23.9046   -0.4965 C.3       2 UNK        -0.2113 
     34 N          26.3414   23.1698    1.0214 N.am      2 UNK        -0.4145 
     35 C          27.0230   22.9763    2.1578 C.2       1 UNK         0.5006 
     36 O          26.8524   23.6385    3.1859 O.2       1 UNK        -0.5103 
     37 C          30.1400   27.8828   -0.1854 C.2       5 UNK         0.5055 
     38 O          31.0131   28.7358   -0.0161 O.2       5 UNK        -0.5220 
     39 N          29.4287   27.3600    0.8246 N.am      6 UNK        -0.4450 
     40 CA         29.6116   27.7077    2.2363 C.3       6 UNK         0.0367 
     41 CB         29.1918   26.5043    3.1010 C.3       6 UNK        -0.1929 
     42 C          28.8625   29.0052    2.6081 C.2       6 UNK         0.5070 
     43 O          28.0711   29.0149    3.5517 O.2       6 UNK        -0.5237 
     44 N          29.0957   30.0721    1.8357 N.am      7 UNK        -0.4739 
     45 CA         28.4487   31.3747    1.9857 C.3       7 UNK         0.0276 
     46 CB         28.6070   32.1645    0.6758 C.3       7 UNK        -0.1927 
     47 C          29.0536   32.1658    3.1540 C.2       7 UNK         0.5013 
     48 O          30.2791   32.2886    3.2231 O.2       7 UNK        -0.5193 
     49 N          28.1902   32.7254    4.0148 N.am      8 UNK        -0.4253 
     50 CA         28.5164   33.5832    5.1626 C.3       8 UNK         0.0242 
     51 CB         28.9730   34.9780    4.6747 C.3       8 UNK        -0.2000 
     52 C          29.5041   32.9050    6.1335 C.2       8 UNK         0.4948 
     53 O          29.1083   31.9755    6.8379 O.2       8 UNK        -0.5275 
     54 N          30.7644   33.3615    6.1394 N.am      9 UNK        -0.4246 
     55 CA         31.8713   32.7856    6.9092 C.3       9 UNK         0.0261 
     56 CB         33.0230   33.8034    6.9630 C.3       9 UNK        -0.1959 
     57 C          32.3748   31.4335    6.3646 C.2       9 UNK         0.5033 
     58 O          33.1246   30.7531    7.0692 O.2       9 UNK        -0.5390 
     59 N          31.9739   31.0678    5.1365 N.am      10 UNK        -0.4215 
     60 CA         32.3188   29.8381    4.4228 C.3       10 UNK         0.0240 
     61 CB         31.6567   28.6180    5.1095 C.3       10 UNK        -0.1982 
     62 C          33.8411   29.7190    4.2256 C.2       10 UNK         0.4970 
     63 O          34.4502   30.6311    3.6639 O.2       10 UNK        -0.4916 
     64 N          34.4172   28.6092    4.6921 N.am      11 UNK        -0.4279 
     65 CA         35.8562   28.3238    4.6815 C.3       11 UNK         0.1003 
     66 C          36.5977   28.8666    5.9409 C.2       11 UNK         0.5709 
     67 N          35.9421   29.5548    6.8706 N.am      11 UNK        -0.7358 
     68 O          37.8042   28.6739    6.0724 O.2       11 UNK        -0.4999 
     69 C69        36.1054   26.8071    4.4577 C.3       12 UNK        -0.0954 
     70 S70        35.7134   26.2545    2.7609 S.3       12 UNK        -0.2268 
     71 C71        33.9000   26.0941    2.7989 C.3       12 UNK         0.0203 
     72 H72        29.0380   20.6420    5.8149 H         1 UNK         0.0888 
     73 H73        27.3498   20.5507    6.3203 H         1 UNK         0.0888 
     74 H74        28.1579   19.1192    5.6748 H         1 UNK         0.0888 
     75 H75        29.2553   21.7083    3.8597 H         1 UNK         0.3017 
     76 H76        27.6552   21.0317    1.5421 H         1 UNK         0.0873 
     77 H77        29.8626   23.1131    1.9583 H         1 UNK         0.0745 
     78 H78        29.0945   22.8249    0.4215 H         1 UNK         0.0745 
     79 H79        31.8773   21.5233    2.8553 H         1 UNK         0.0705 
     80 H80        32.8044   20.7731    1.5772 H         1 UNK         0.0705 
     81 H81        32.9640   23.5863    3.2634 H         1 UNK         0.1334 
     82 H82        33.7535   26.3514    0.0844 H         1 UNK         0.1417 
     83 H83        32.1985   22.4517   -0.7978 H         1 UNK         0.1562 
     84 H84        32.4877   23.9561   -2.5816 H         1 UNK         0.0748 
     85 H85        34.0229   24.7550   -2.3503 H         1 UNK         0.0748 
     86 H86        30.3824   25.3562   -1.1854 H         1 UNK         0.0940 
     87 H87        29.9706   25.6454   -2.8543 H         1 UNK         0.0940 
     88 H88        30.2148   28.2020   -2.2690 H         1 UNK         0.0703 
     89 H89        27.8039   26.8650   -1.1444 H         1 UNK         0.3081 
     90 H90        25.7934   29.1138   -2.9761 H         1 UNK         0.0719 
     91 H91        25.9565   27.2834   -4.6762 H         1 UNK         0.0809 
     92 H92        25.8916   26.0739   -3.4020 H         1 UNK         0.0809 
     93 H93        24.5025   27.1182   -3.7075 H         1 UNK         0.0809 
     94 H94        25.1506   26.9547   -1.2155 H         1 UNK         0.2990 
     95 H95        26.1588   28.1973    1.7933 H         1 UNK         0.0690 
     96 H96        24.3003   29.8651    1.6907 H         1 UNK         0.0788 
     97 H97        23.8471   28.4646    2.6443 H         1 UNK         0.0788 
     98 H98        23.2332   28.6503    0.9997 H         1 UNK         0.0788 
     99 H99        24.1041   26.3390    1.3629 H         1 UNK         0.2993 
    100 H100       24.6096   24.1282    1.6493 H         1 UNK         0.0949 
    101 H101       24.1320   22.9110   -0.4881 H         1 UNK         0.0767 
    102 H102       23.7727   24.6177   -0.6639 H         1 UNK         0.0767 
    103 H103       25.2504   23.9621   -1.3563 H         1 UNK         0.0767 
    104 H104       26.5697   22.6056    0.2161 H         1 UNK         0.3013 
    105 H105       28.6796   26.7000    0.6301 H         1 UNK         0.3121 
    106 H106       30.6730   27.8861    2.4169 H         1 UNK         0.0774 
    107 H107       29.3607   26.7020    4.1599 H         1 UNK         0.0815 
    108 H108       28.1334   26.2702    2.9803 H         1 UNK         0.0815 
    109 H109       29.7633   25.6123    2.8439 H         1 UNK         0.0815 
    110 H110       29.7896   29.9821    1.1018 H         1 UNK         0.2987 
    111 H111       27.3831   31.2128    2.1646 H         1 UNK         0.0949 
    112 H112       28.1044   33.1305    0.7396 H         1 UNK         0.0806 
    113 H113       29.6556   32.3566    0.4440 H         1 UNK         0.0806 
    114 H114       28.1721   31.6293   -0.1682 H         1 UNK         0.0806 
    115 H115       27.2057   32.5345    3.8887 H         1 UNK         0.3010 
    116 H116       27.5900   33.7204    5.7227 H         1 UNK         0.0829 
    117 H117       29.8550   34.9293    4.0351 H         1 UNK         0.0813 
    118 H118       28.1840   35.4649    4.1012 H         1 UNK         0.0813 
    119 H119       29.2041   35.6348    5.5147 H         1 UNK         0.0813 
    120 H120       30.9967   34.1149    5.5079 H         1 UNK         0.3038 
    121 H121       31.5215   32.6107    7.9288 H         1 UNK         0.0769 
    122 H122       33.4157   34.0215    5.9690 H         1 UNK         0.0811 
    123 H123       33.8513   33.4243    7.5635 H         1 UNK         0.0811 
    124 H124       32.7031   34.7431    7.4137 H         1 UNK         0.0811 
    125 H125       31.3881   31.7099    4.6052 H         1 UNK         0.3204 
    126 H126       31.8910   29.9329    3.4238 H         1 UNK         0.0748 
    127 H127       31.8167   27.7005    4.5431 H         1 UNK         0.0771 
    128 H128       32.0332   28.4552    6.1201 H         1 UNK         0.0771 
    129 H129       30.5786   28.7588    5.1894 H         1 UNK         0.0771 
    130 H130       33.8424   27.9458    5.1885 H         1 UNK         0.2980 
    131 H131       36.3085   28.8544    3.8416 H         1 UNK         0.0545 
    132 H132       36.4501   29.8967    7.6704 H         1 UNK         0.3459 
    133 H133       34.9560   29.7697    6.7778 H         1 UNK         0.3459 
    134 H134       35.5496   26.2061    5.1794 H         1 UNK         0.0616 
    135 H135       37.1575   26.5638    4.6165 H         1 UNK         0.0616 
    136 H136       33.5752   25.8124    3.8015 H         1 UNK         0.0634 
    137 H137       33.4475   27.0625    2.5826 H         1 UNK         0.0634 
@<TRIPOS>BOND
     1    1    2 1    
     2    1   72 1    
     3    1   73 1    
     4    1   74 1    
     5    2    3 2    
     6    2    4 am   BACKBONE|DICT|INTERRES
     7    4    5 1    
     8    4   75 1    
     9    5    6 1    
    10    5   35 1    
    11    5   76 1    
    12    6    7 1    
    13    6   77 1    
    14    6   78 1    
    15    7    8 1    
    16    8    9 1    
    17    8   79 1    
    18    8   80 1    
    19    9   10 ar   
    20    9   14 ar   
    21   10   11 ar   
    22   10   81 1    
    23   11   12 ar   
    24   11   71 1    
    25   12   13 ar   
    26   12   82 1    
    27   13   14 ar   
    28   13   15 1    
    29   14   83 1    
    30   15   16 1    
    31   15   84 1    
    32   15   85 1    
    33   16   17 1    
    34   17   18 1    
    35   17   86 1    
    36   17   87 1    
    37   18   19 1    
    38   18   37 1    
    39   18   88 1    
    40   19   20 am   BACKBONE|DICT|INTERRES
    41   19   89 1    
    42   20   21 2    
    43   20   22 1    
    44   22   23 1    
    45   22   24 1    
    46   22   90 1    
    47   23   91 1    
    48   23   92 1    
    49   23   93 1    
    50   24   25 am   BACKBONE|DICT|INTERRES
    51   24   94 1    
    52   25   26 2    
    53   25   27 1    
    54   27   28 1    
    55   27   29 1    
    56   27   95 1    
    57   28   96 1    
    58   28   97 1    
    59   28   98 1    
    60   29   30 am   BACKBONE|DICT|INTERRES
    61   29   99 1    
    62   30   31 2    
    63   30   32 1    
    64   32   33 1    
    65   32   34 1    
    66   32  100 1    
    67   33  101 1    
    68   33  102 1    
    69   33  103 1    
    70   34   35 am   BACKBONE|DICT|INTERRES
    71   34  104 1    
    72   35   36 2    
    73   37   38 2    
    74   37   39 am   BACKBONE|DICT|INTERRES
    75   39   40 1    
    76   39  105 1    
    77   40   41 1    
    78   40   42 1    
    79   40  106 1    
    80   41  107 1    
    81   41  108 1    
    82   41  109 1    
    83   42   43 2    
    84   42   44 am   BACKBONE|DICT|INTERRES
    85   44   45 1    
    86   44  110 1    
    87   45   46 1    
    88   45   47 1    
    89   45  111 1    
    90   46  112 1    
    91   46  113 1    
    92   46  114 1    
    93   47   48 2    
    94   47   49 am   BACKBONE|DICT|INTERRES
    95   49   50 1    
    96   49  115 1    
    97   50   51 1    
    98   50   52 1    
    99   50  116 1    
   100   51  117 1    
   101   51  118 1    
   102   51  119 1    
   103   52   53 2    
   104   52   54 am   BACKBONE|DICT|INTERRES
   105   54   55 1    
   106   54  120 1    
   107   55   56 1    
   108   55   57 1    
   109   55  121 1    
   110   56  122 1    
   111   56  123 1    
   112   56  124 1    
   113   57   58 2    
   114   57   59 am   BACKBONE|DICT|INTERRES
   115   59   60 1    
   116   59  125 1    
   117   60   61 1    
   118   60   62 1    
   119   60  126 1    
   120   61  127 1    
   121   61  128 1    
   122   61  129 1    
   123   62   63 2    
   124   62   64 am   BACKBONE|DICT|INTERRES
   125   64   65 1    
   126   64  130 1    
   127   65   66 1    
   128   65   69 1    
   129   65  131 1    
   130   66   67 am   BACKBONE|DICT|INTERRES
   131   66   68 2    
   132   67  132 1    
   133   67  133 1    
   134   69   70 1    
   135   69  134 1    
   136   69  135 1    
   137   70   71 1    
   138   71  136 1    
   139   71  137 1    
@<TRIPOS>SUBSTRUCTURE
     1 UNK         1 GROUP             0       ****    0 ROOT    
