@<TRIPOS>MOLECULE
3R136
137   139    1
SMALL
USER_CHARGES


@<TRIPOS>ATOM
      1 CA         28.9088   22.3427   -2.8909 C.3       0 UNK        -0.1979 
      2 C          28.8079   23.1136   -1.5841 C.2       0 UNK         0.4864 
      3 O          28.8892   24.3420   -1.5937 O.2       0 UNK        -0.5359 
      4 N          28.6419   22.4035   -0.4600 N.am      1 UNK        -0.4318 
      5 CA         28.5079   22.9773    0.8826 C.3       1 UNK         0.0824 
      6 C6         28.5543   21.9012    1.9963 C.3       12 UNK        -0.0944 
      7 S7         30.1142   20.9611    2.0168 S.3       12 UNK        -0.2672 
      8 C8         30.9546   21.6314    3.4972 C.3       12 UNK         0.0333 
      9 C9         31.7898   22.8934    3.2682 C.ar      12 UNK        -0.0807 
     10 C10        32.0710   23.7264    4.3578 C.ar      12 UNK        -0.0894 
     11 C11        32.9224   24.8295    4.2221 C.ar      12 UNK        -0.0804 
     12 C12        33.4868   25.1032    2.9734 C.ar      12 UNK        -0.0824 
     13 C13        33.1970   24.2995    1.8678 C.ar      12 UNK        -0.0762 
     14 C14        32.3559   23.1941    2.0230 C.ar      12 UNK        -0.0782 
     15 C15        33.8248   24.5978    0.5125 C.3       12 UNK         0.0230 
     16 S16        33.2212   26.1520   -0.2218 S.3       12 UNK        -0.2608 
     17 C17        31.4331   25.8314   -0.4078 C.3       12 UNK        -0.0989 
     18 CA         30.5569   27.0059    0.0967 C.3       5 UNK         0.0716 
     19 N          29.2355   27.0042   -0.5399 N.am      5 UNK        -0.4135 
     20 C          28.3906   28.0449   -0.5222 C.2       4 UNK         0.5031 
     21 O          28.5499   29.0319    0.1952 O.2       4 UNK        -0.5229 
     22 CA         27.2073   28.0252   -1.5046 C.3       4 UNK         0.0329 
     23 CB         27.4791   27.2314   -2.7968 C.3       4 UNK        -0.2001 
     24 N          26.0023   27.5078   -0.8691 N.am      4 UNK        -0.4303 
     25 C          25.0932   28.2288   -0.2055 C.2       3 UNK         0.5044 
     26 O          25.1663   29.4483   -0.0521 O.2       3 UNK        -0.5152 
     27 CA         23.8747   27.4833    0.3775 C.3       3 UNK         0.0319 
     28 CB         22.6935   27.5070   -0.6127 C.3       3 UNK        -0.2001 
     29 N          24.1350   26.1180    0.8621 N.am      3 UNK        -0.4354 
     30 C          24.4986   25.0285    0.1702 C.2       2 UNK         0.4964 
     31 O          24.6761   25.0008   -1.0492 O.2       2 UNK        -0.5047 
     32 CA         24.7324   23.7527    0.9931 C.3       2 UNK         0.0288 
     33 CB         23.6736   22.6888    0.6591 C.3       2 UNK        -0.2113 
     34 N          26.0684   23.1868    0.7902 N.am      2 UNK        -0.4145 
     35 C          27.2284   23.8247    1.0110 C.2       1 UNK         0.5006 
     36 O          27.3207   25.0144    1.3161 O.2       1 UNK        -0.5103 
     37 C          30.5227   27.1064    1.6372 C.2       5 UNK         0.5055 
     38 O          31.4067   27.7437    2.2026 O.2       5 UNK        -0.5220 
     39 N          29.5074   26.5303    2.2972 N.am      6 UNK        -0.4450 
     40 CA         29.3946   26.5277    3.7610 C.3       6 UNK         0.0367 
     41 CB         28.5800   25.3076    4.2187 C.3       6 UNK        -0.1929 
     42 C          28.8253   27.8293    4.3576 C.2       6 UNK         0.5070 
     43 O          28.6432   27.8922    5.5753 O.2       6 UNK        -0.5237 
     44 N          28.5273   28.8403    3.5282 N.am      7 UNK        -0.4739 
     45 CA         27.9650   30.1313    3.9372 C.3       7 UNK         0.0276 
     46 CB         27.3356   30.8165    2.7113 C.3       7 UNK        -0.1927 
     47 C          28.9912   31.0335    4.6548 C.2       7 UNK         0.5013 
     48 O          29.3761   32.0765    4.1201 O.2       7 UNK        -0.5193 
     49 N          29.4060   30.6119    5.8581 N.am      8 UNK        -0.4253 
     50 CA         30.2758   31.3056    6.8156 C.3       8 UNK         0.0242 
     51 CB         29.5016   32.4570    7.4961 C.3       8 UNK        -0.2000 
     52 C          31.6095   31.7469    6.1867 C.2       8 UNK         0.4948 
     53 O          32.4991   30.9143    6.0130 O.2       8 UNK        -0.5275 
     54 N          31.7132   33.0335    5.8227 N.am      9 UNK        -0.4246 
     55 CA         32.8597   33.6425    5.1415 C.3       9 UNK         0.0261 
     56 CB         32.6059   35.1490    4.9736 C.3       9 UNK        -0.1959 
     57 C          33.2039   33.0002    3.7845 C.2       9 UNK         0.5033 
     58 O          34.3603   33.0805    3.3658 O.2       9 UNK        -0.5390 
     59 N          32.2270   32.3392    3.1423 N.am      10 UNK        -0.4215 
     60 CA         32.4137   31.5548    1.9176 C.3       10 UNK         0.0240 
     61 CB         31.0516   31.0572    1.4127 C.3       10 UNK        -0.1982 
     62 C          33.4034   30.3807    2.0627 C.2       10 UNK         0.4970 
     63 O          33.9797   29.9743    1.0522 O.2       10 UNK        -0.4916 
     64 N          33.6242   29.8920    3.2941 N.am      11 UNK        -0.4279 
     65 CA         34.6647   28.9017    3.6111 C.3       11 UNK         0.1003 
     66 C          36.1206   29.4418    3.4737 C.2       11 UNK         0.5709 
     67 N          36.3523   30.7474    3.3743 N.am      11 UNK        -0.7358 
     68 O          37.0635   28.6541    3.4522 O.2       11 UNK        -0.4999 
     69 C69        34.4634   28.2539    5.0092 C.3       12 UNK        -0.0954 
     70 S70        32.8423   27.4428    5.2442 S.3       12 UNK        -0.2268 
     71 C71        33.2759   25.6794    5.4397 C.3       12 UNK         0.0203 
     72 H72        29.8650   22.5467   -3.3720 H         1 UNK         0.0888 
     73 H73        28.8275   21.2667   -2.7379 H         1 UNK         0.0888 
     74 H74        28.1131   22.6513   -3.5684 H         1 UNK         0.0888 
     75 H75        28.6131   21.3950   -0.5096 H         1 UNK         0.3017 
     76 H76        29.3532   23.6504    1.0383 H         1 UNK         0.0873 
     77 H77        27.7449   21.1802    1.8675 H         1 UNK         0.0745 
     78 H78        28.3921   22.3482    2.9776 H         1 UNK         0.0745 
     79 H79        31.6262   20.8588    3.8734 H         1 UNK         0.0705 
     80 H80        30.2202   21.7992    4.2865 H         1 UNK         0.0705 
     81 H81        31.6524   23.4924    5.3273 H         1 UNK         0.1334 
     82 H82        34.1533   25.9440    2.8587 H         1 UNK         0.1417 
     83 H83        32.1674   22.5545    1.1725 H         1 UNK         0.1562 
     84 H84        33.6437   23.7829   -0.1902 H         1 UNK         0.0748 
     85 H85        34.9074   24.6632    0.6293 H         1 UNK         0.0748 
     86 H86        31.1493   24.8978    0.0774 H         1 UNK         0.0940 
     87 H87        31.2620   25.6707   -1.4734 H         1 UNK         0.0940 
     88 H88        31.0342   27.9266   -0.2478 H         1 UNK         0.0703 
     89 H89        29.0045   26.1768   -1.0867 H         1 UNK         0.3081 
     90 H90        27.0380   29.0626   -1.8016 H         1 UNK         0.0719 
     91 H91        28.4490   27.4858   -3.2268 H         1 UNK         0.0809 
     92 H92        27.4553   26.1551   -2.6328 H         1 UNK         0.0809 
     93 H93        26.7263   27.4567   -3.5524 H         1 UNK         0.0809 
     94 H94        25.8259   26.5113   -0.9575 H         1 UNK         0.2990 
     95 H95        23.5690   28.0480    1.2598 H         1 UNK         0.0690 
     96 H96        22.4358   28.5314   -0.8851 H         1 UNK         0.0788 
     97 H97        21.8023   27.0537   -0.1787 H         1 UNK         0.0788 
     98 H98        22.9244   26.9765   -1.5369 H         1 UNK         0.0788 
     99 H99        24.0634   26.0186    1.8656 H         1 UNK         0.2993 
    100 H100       24.6455   23.9968    2.0541 H         1 UNK         0.0949 
    101 H101       23.7820   21.8066    1.2904 H         1 UNK         0.0767 
    102 H102       22.6664   23.0771    0.8175 H         1 UNK         0.0767 
    103 H103       23.7389   22.3684   -0.3818 H         1 UNK         0.0767 
    104 H104       26.1035   22.2241    0.4900 H         1 UNK         0.3013 
    105 H105       28.7594   26.0699    1.7817 H         1 UNK         0.3121 
    106 H106       30.3953   26.4082    4.1762 H         1 UNK         0.0774 
    107 H107       27.5398   25.3700    3.8990 H         1 UNK         0.0815 
    108 H108       29.0086   24.3863    3.8291 H         1 UNK         0.0815 
    109 H109       28.5798   25.2232    5.3061 H         1 UNK         0.0815 
    110 H110       28.7212   28.7260    2.5406 H         1 UNK         0.2987 
    111 H111       27.1584   29.9406    4.6486 H         1 UNK         0.0949 
    112 H112       26.8611   31.7581    2.9899 H         1 UNK         0.0806 
    113 H113       28.0784   31.0411    1.9459 H         1 UNK         0.0806 
    114 H114       26.5691   30.1896    2.2555 H         1 UNK         0.0806 
    115 H115       29.1050   29.6786    6.1291 H         1 UNK         0.3010 
    116 H116       30.5307   30.5774    7.5873 H         1 UNK         0.0829 
    117 H117       29.1145   33.1810    6.7783 H         1 UNK         0.0813 
    118 H118       28.6510   32.0720    8.0589 H         1 UNK         0.0813 
    119 H119       30.1340   32.9938    8.2048 H         1 UNK         0.0813 
    120 H120       30.9092   33.6268    5.9690 H         1 UNK         0.3038 
    121 H121       33.7293   33.5102    5.7885 H         1 UNK         0.0769 
    122 H122       31.7269   35.3437    4.3576 H         1 UNK         0.0811 
    123 H123       33.4552   35.6366    4.4926 H         1 UNK         0.0811 
    124 H124       32.4580   35.6378    5.9368 H         1 UNK         0.0811 
    125 H125       31.2983   32.3225    3.5562 H         1 UNK         0.3204 
    126 H126       32.8262   32.2289    1.1643 H         1 UNK         0.0748 
    127 H127       31.1559   30.5127    0.4733 H         1 UNK         0.0771 
    128 H128       30.5864   30.3777    2.1264 H         1 UNK         0.0771 
    129 H129       30.3633   31.8834    1.2353 H         1 UNK         0.0771 
    130 H130       33.1144   30.2656    4.0863 H         1 UNK         0.2980 
    131 H131       34.5746   28.1118    2.8656 H         1 UNK         0.0545 
    132 H132       35.5921   31.4178    3.3781 H         1 UNK         0.3459 
    133 H133       37.3021   31.0704    3.2833 H         1 UNK         0.3459 
    134 H134       34.5614   29.0143    5.7858 H         1 UNK         0.0616 
    135 H135       35.2553   27.5300    5.2055 H         1 UNK         0.0616 
    136 H136       34.3361   25.5600    5.6627 H         1 UNK         0.0634 
    137 H137       32.7467   25.3106    6.3194 H         1 UNK         0.0634 
@<TRIPOS>BOND
     1    1    2 1    
     2    1   72 1    
     3    1   73 1    
     4    1   74 1    
     5    2    3 2    
     6    2    4 am   BACKBONE|DICT|INTERRES
     7    4    5 1    
     8    4   75 1    
     9    5    6 1    
    10    5   35 1    
    11    5   76 1    
    12    6    7 1    
    13    6   77 1    
    14    6   78 1    
    15    7    8 1    
    16    8    9 1    
    17    8   79 1    
    18    8   80 1    
    19    9   10 ar   
    20    9   14 ar   
    21   10   11 ar   
    22   10   81 1    
    23   11   12 ar   
    24   11   71 1    
    25   12   13 ar   
    26   12   82 1    
    27   13   14 ar   
    28   13   15 1    
    29   14   83 1    
    30   15   16 1    
    31   15   84 1    
    32   15   85 1    
    33   16   17 1    
    34   17   18 1    
    35   17   86 1    
    36   17   87 1    
    37   18   19 1    
    38   18   37 1    
    39   18   88 1    
    40   19   20 am   BACKBONE|DICT|INTERRES
    41   19   89 1    
    42   20   21 2    
    43   20   22 1    
    44   22   23 1    
    45   22   24 1    
    46   22   90 1    
    47   23   91 1    
    48   23   92 1    
    49   23   93 1    
    50   24   25 am   BACKBONE|DICT|INTERRES
    51   24   94 1    
    52   25   26 2    
    53   25   27 1    
    54   27   28 1    
    55   27   29 1    
    56   27   95 1    
    57   28   96 1    
    58   28   97 1    
    59   28   98 1    
    60   29   30 am   BACKBONE|DICT|INTERRES
    61   29   99 1    
    62   30   31 2    
    63   30   32 1    
    64   32   33 1    
    65   32   34 1    
    66   32  100 1    
    67   33  101 1    
    68   33  102 1    
    69   33  103 1    
    70   34   35 am   BACKBONE|DICT|INTERRES
    71   34  104 1    
    72   35   36 2    
    73   37   38 2    
    74   37   39 am   BACKBONE|DICT|INTERRES
    75   39   40 1    
    76   39  105 1    
    77   40   41 1    
    78   40   42 1    
    79   40  106 1    
    80   41  107 1    
    81   41  108 1    
    82   41  109 1    
    83   42   43 2    
    84   42   44 am   BACKBONE|DICT|INTERRES
    85   44   45 1    
    86   44  110 1    
    87   45   46 1    
    88   45   47 1    
    89   45  111 1    
    90   46  112 1    
    91   46  113 1    
    92   46  114 1    
    93   47   48 2    
    94   47   49 am   BACKBONE|DICT|INTERRES
    95   49   50 1    
    96   49  115 1    
    97   50   51 1    
    98   50   52 1    
    99   50  116 1    
   100   51  117 1    
   101   51  118 1    
   102   51  119 1    
   103   52   53 2    
   104   52   54 am   BACKBONE|DICT|INTERRES
   105   54   55 1    
   106   54  120 1    
   107   55   56 1    
   108   55   57 1    
   109   55  121 1    
   110   56  122 1    
   111   56  123 1    
   112   56  124 1    
   113   57   58 2    
   114   57   59 am   BACKBONE|DICT|INTERRES
   115   59   60 1    
   116   59  125 1    
   117   60   61 1    
   118   60   62 1    
   119   60  126 1    
   120   61  127 1    
   121   61  128 1    
   122   61  129 1    
   123   62   63 2    
   124   62   64 am   BACKBONE|DICT|INTERRES
   125   64   65 1    
   126   64  130 1    
   127   65   66 1    
   128   65   69 1    
   129   65  131 1    
   130   66   67 am   BACKBONE|DICT|INTERRES
   131   66   68 2    
   132   67  132 1    
   133   67  133 1    
   134   69   70 1    
   135   69  134 1    
   136   69  135 1    
   137   70   71 1    
   138   71  136 1    
   139   71  137 1    
@<TRIPOS>SUBSTRUCTURE
     1 UNK         1 GROUP             0       ****    0 ROOT    
