@<TRIPOS>MOLECULE
3R136
137   139    1
SMALL
USER_CHARGES


@<TRIPOS>ATOM
      1 CA         31.2482   25.4566   -6.1041 C.3       0 UNK        -0.1979 
      2 C          30.4890   25.9443   -4.8788 C.2       0 UNK         0.4864 
      3 O          29.5104   26.6776   -5.0219 O.2       0 UNK        -0.5359 
      4 N          30.9412   25.5485   -3.6807 N.am      1 UNK        -0.4318 
      5 CA         30.3219   25.8694   -2.3909 C.3       1 UNK         0.0824 
      6 C6         31.3102   25.5961   -1.2250 C.3       12 UNK        -0.0944 
      7 S7         30.6336   25.8193    0.4578 S.3       12 UNK        -0.2672 
      8 C8         31.0547   24.2083    1.1952 C.3       12 UNK         0.0333 
      9 C9         30.7277   24.1811    2.6785 C.ar      12 UNK        -0.0807 
     10 C10        31.6534   24.6524    3.6137 C.ar      12 UNK        -0.0894 
     11 C11        31.3352   24.6829    4.9745 C.ar      12 UNK        -0.0804 
     12 C12        30.0912   24.2085    5.4016 C.ar      12 UNK        -0.0824 
     13 C13        29.1663   23.7147    4.4760 C.ar      12 UNK        -0.0762 
     14 C14        29.4926   23.6993    3.1168 C.ar      12 UNK        -0.0782 
     15 C15        27.7988   23.2311    4.9343 C.3       12 UNK         0.0230 
     16 S16        26.4604   24.2862    4.2911 S.3       12 UNK        -0.2608 
     17 C17        26.8530   25.8987    5.0535 C.3       12 UNK        -0.0989 
     18 CA         27.6517   26.8421    4.1154 C.3       5 UNK         0.0716 
     19 N          26.9776   27.0464    2.8328 N.am      5 UNK        -0.4135 
     20 C          27.3933   27.7864    1.7968 C.2       4 UNK         0.5031 
     21 O          28.4249   28.4689    1.8014 O.2       4 UNK        -0.5229 
     22 CA         26.4849   27.7617    0.5478 C.3       4 UNK         0.0329 
     23 CB         27.0864   28.5362   -0.6372 C.3       4 UNK        -0.2001 
     24 N          26.1465   26.3996    0.1061 N.am      4 UNK        -0.4303 
     25 C          25.2205   25.6130    0.6776 C.2       3 UNK         0.5044 
     26 O          24.5810   25.9580    1.6727 O.2       3 UNK        -0.5152 
     27 CA         24.9297   24.2286    0.0661 C.3       3 UNK         0.0319 
     28 CB         23.4922   24.1752   -0.4794 C.3       3 UNK        -0.2001 
     29 N          25.8471   23.8463   -1.0076 N.am      3 UNK        -0.4354 
     30 C          27.0185   23.2197   -0.8384 C.2       2 UNK         0.4964 
     31 O          27.4686   22.8879    0.2575 O.2       2 UNK        -0.5047 
     32 CA         27.8387   22.9124   -2.1088 C.3       2 UNK         0.0288 
     33 CB         27.0035   22.9080   -3.4105 C.3       2 UNK        -0.2113 
     34 N          28.9927   23.8084   -2.2477 N.am      2 UNK        -0.4145 
     35 C          28.9646   25.1508   -2.2450 C.2       1 UNK         0.5006 
     36 O          27.9311   25.8158   -2.1564 O.2       1 UNK        -0.5103 
     37 C          27.9353   28.1828    4.8135 C.2       5 UNK         0.5055 
     38 O          26.9923   28.8920    5.1706 O.2       5 UNK        -0.5220 
     39 N          29.2272   28.5091    4.9545 N.am      6 UNK        -0.4450 
     40 CA         29.7850   29.7489    5.5113 C.3       6 UNK         0.0367 
     41 CB         29.4332   29.8945    7.0058 C.3       6 UNK        -0.1929 
     42 C          29.4672   31.0257    4.7061 C.2       6 UNK         0.5070 
     43 O          29.7930   32.1181    5.1711 O.2       6 UNK        -0.5237 
     44 N          28.8823   30.8824    3.5100 N.am      7 UNK        -0.4739 
     45 CA         28.5841   31.9803    2.5926 C.3       7 UNK         0.0276 
     46 CB         27.1545   31.8284    2.0474 C.3       7 UNK        -0.1927 
     47 C          29.6142   32.0183    1.4587 C.2       7 UNK         0.5013 
     48 O          30.1593   33.0871    1.1817 O.2       7 UNK        -0.5193 
     49 N          29.8824   30.8582    0.8410 N.am      8 UNK        -0.4253 
     50 CA         30.8861   30.7200   -0.2167 C.3       8 UNK         0.0242 
     51 CB         30.4812   29.5961   -1.1829 C.3       8 UNK        -0.2000 
     52 C          32.2803   30.4579    0.3659 C.2       8 UNK         0.4948 
     53 O          33.2259   31.1716    0.0314 O.2       8 UNK        -0.5275 
     54 N          32.3817   29.4302    1.2192 N.am      9 UNK        -0.4246 
     55 CA         33.6470   28.9485    1.7798 C.3       9 UNK         0.0261 
     56 CB         33.4810   27.4720    2.1691 C.3       9 UNK        -0.1959 
     57 C          34.1532   29.7500    2.9895 C.2       9 UNK         0.5033 
     58 O          35.3095   29.5671    3.3732 O.2       9 UNK        -0.5390 
     59 N          33.2833   30.5599    3.6129 N.am      10 UNK        -0.4215 
     60 CA         33.4675   31.3227    4.8628 C.3       10 UNK         0.0240 
     61 CB         34.6096   32.3504    4.7408 C.3       10 UNK        -0.1982 
     62 C          33.6322   30.4550    6.1297 C.2       10 UNK         0.4970 
     63 O          33.0857   30.8143    7.1721 O.2       10 UNK        -0.4916 
     64 N          34.3420   29.3271    6.0082 N.am      11 UNK        -0.4279 
     65 CA         34.5196   28.2599    7.0089 C.3       11 UNK         0.1003 
     66 C          35.3955   28.6525    8.2370 C.2       11 UNK         0.5709 
     67 N          36.1377   29.7528    8.1959 N.am      11 UNK        -0.7358 
     68 O          35.4338   27.9327    9.2325 O.2       11 UNK        -0.4999 
     69 C69        33.1841   27.5707    7.4206 C.3       12 UNK        -0.0954 
     70 S70        32.1512   27.0789    5.9984 S.3       12 UNK        -0.2268 
     71 C71        32.3162   25.2719    5.9759 C.3       12 UNK         0.0203 
     72 H72        32.0958   24.8260   -5.8362 H         1 UNK         0.0888 
     73 H73        30.5868   24.8787   -6.7492 H         1 UNK         0.0888 
     74 H74        31.6246   26.3053   -6.6746 H         1 UNK         0.0888 
     75 H75        31.7573   24.9546   -3.6414 H         1 UNK         0.3017 
     76 H76        30.1060   26.9395   -2.3915 H         1 UNK         0.0873 
     77 H77        32.1687   26.2633   -1.3182 H         1 UNK         0.0745 
     78 H78        31.7163   24.5870   -1.3124 H         1 UNK         0.0745 
     79 H79        32.1173   24.0070    1.0501 H         1 UNK         0.0705 
     80 H80        30.5116   23.4191    0.6724 H         1 UNK         0.0705 
     81 H81        32.6126   25.0212    3.2799 H         1 UNK         0.1334 
     82 H82        29.8374   24.2421    6.4524 H         1 UNK         0.1417 
     83 H83        28.7689   23.3398    2.3985 H         1 UNK         0.1562 
     84 H84        27.7376   23.1943    6.0231 H         1 UNK         0.0748 
     85 H85        27.6442   22.2102    4.5825 H         1 UNK         0.0748 
     86 H86        27.3991   25.7307    5.9838 H         1 UNK         0.0940 
     87 H87        25.9072   26.3620    5.3421 H         1 UNK         0.0940 
     88 H88        28.6075   26.3695    3.8846 H         1 UNK         0.0703 
     89 H89        26.1021   26.5455    2.7145 H         1 UNK         0.3081 
     90 H90        25.5601   28.2708    0.8270 H         1 UNK         0.0719 
     91 H91        28.0345   28.1017   -0.9488 H         1 UNK         0.0809 
     92 H92        26.4179   28.5290   -1.4981 H         1 UNK         0.0809 
     93 H93        27.2728   29.5791   -0.3826 H         1 UNK         0.0809 
     94 H94        26.6702   26.0475   -0.6915 H         1 UNK         0.2990 
     95 H95        25.0088   23.5007    0.8768 H         1 UNK         0.0690 
     96 H96        23.2482   23.1826   -0.8585 H         1 UNK         0.0788 
     97 H97        23.3401   24.8913   -1.2881 H         1 UNK         0.0788 
     98 H98        22.7670   24.4073    0.3019 H         1 UNK         0.0788 
     99 H99        25.5851   24.1146   -1.9455 H         1 UNK         0.2993 
    100 H100       28.2380   21.9060   -1.9721 H         1 UNK         0.0949 
    101 H101       26.6313   23.8993   -3.6717 H         1 UNK         0.0767 
    102 H102       27.6002   22.5545   -4.2516 H         1 UNK         0.0767 
    103 H103       26.1452   22.2397   -3.3268 H         1 UNK         0.0767 
    104 H104       29.8917   23.3531   -2.3127 H         1 UNK         0.3013 
    105 H105       29.9165   27.8477    4.6216 H         1 UNK         0.3121 
    106 H106       30.8663   29.6377    5.4465 H         1 UNK         0.0774 
    107 H107       29.9752   30.7279    7.4546 H         1 UNK         0.0815 
    108 H108       28.3695   30.0784    7.1578 H         1 UNK         0.0815 
    109 H109       29.7058   28.9989    7.5642 H         1 UNK         0.0815 
    110 H110       28.6655   29.9466    3.1832 H         1 UNK         0.2987 
    111 H111       28.6356   32.9381    3.1157 H         1 UNK         0.0949 
    112 H112       26.9228   32.6181    1.3314 H         1 UNK         0.0806 
    113 H113       27.0057   30.8750    1.5436 H         1 UNK         0.0806 
    114 H114       26.4208   31.8944    2.8510 H         1 UNK         0.0806 
    115 H115       29.3871   30.0181    1.1288 H         1 UNK         0.3010 
    116 H116       30.9366   31.6460   -0.7945 H         1 UNK         0.0829 
    117 H117       29.5603   29.8446   -1.7098 H         1 UNK         0.0813 
    118 H118       31.2493   29.4326   -1.9401 H         1 UNK         0.0813 
    119 H119       30.3298   28.6514   -0.6610 H         1 UNK         0.0813 
    120 H120       31.5564   28.8825    1.4189 H         1 UNK         0.3038 
    121 H121       34.4196   29.0095    1.0099 H         1 UNK         0.0769 
    122 H122       34.3866   27.0772    2.6321 H         1 UNK         0.0811 
    123 H123       33.2761   26.8544    1.2953 H         1 UNK         0.0811 
    124 H124       32.6651   27.3383    2.8798 H         1 UNK         0.0811 
    125 H125       32.3635   30.6240    3.2023 H         1 UNK         0.3204 
    126 H126       32.5435   31.8869    4.9972 H         1 UNK         0.0748 
    127 H127       34.6576   32.9833    5.6280 H         1 UNK         0.0771 
    128 H128       35.5838   31.8729    4.6326 H         1 UNK         0.0771 
    129 H129       34.4610   33.0063    3.8830 H         1 UNK         0.0771 
    130 H130       34.7980   29.1727    5.1127 H         1 UNK         0.2980 
    131 H131       35.1111   27.5024    6.4942 H         1 UNK         0.0545 
    132 H132       36.7102   29.9932    8.9897 H         1 UNK         0.3459 
    133 H133       36.1231   30.3463    7.3824 H         1 UNK         0.3459 
    134 H134       32.5900   28.2417    8.0430 H         1 UNK         0.0616 
    135 H135       33.3818   26.6898    8.0334 H         1 UNK         0.0616 
    136 H136       32.1280   24.8720    6.9734 H         1 UNK         0.0634 
    137 H137       33.3397   25.0010    5.7126 H         1 UNK         0.0634 
@<TRIPOS>BOND
     1    1    2 1    
     2    1   72 1    
     3    1   73 1    
     4    1   74 1    
     5    2    3 2    
     6    2    4 am   BACKBONE|DICT|INTERRES
     7    4    5 1    
     8    4   75 1    
     9    5    6 1    
    10    5   35 1    
    11    5   76 1    
    12    6    7 1    
    13    6   77 1    
    14    6   78 1    
    15    7    8 1    
    16    8    9 1    
    17    8   79 1    
    18    8   80 1    
    19    9   10 ar   
    20    9   14 ar   
    21   10   11 ar   
    22   10   81 1    
    23   11   12 ar   
    24   11   71 1    
    25   12   13 ar   
    26   12   82 1    
    27   13   14 ar   
    28   13   15 1    
    29   14   83 1    
    30   15   16 1    
    31   15   84 1    
    32   15   85 1    
    33   16   17 1    
    34   17   18 1    
    35   17   86 1    
    36   17   87 1    
    37   18   19 1    
    38   18   37 1    
    39   18   88 1    
    40   19   20 am   BACKBONE|DICT|INTERRES
    41   19   89 1    
    42   20   21 2    
    43   20   22 1    
    44   22   23 1    
    45   22   24 1    
    46   22   90 1    
    47   23   91 1    
    48   23   92 1    
    49   23   93 1    
    50   24   25 am   BACKBONE|DICT|INTERRES
    51   24   94 1    
    52   25   26 2    
    53   25   27 1    
    54   27   28 1    
    55   27   29 1    
    56   27   95 1    
    57   28   96 1    
    58   28   97 1    
    59   28   98 1    
    60   29   30 am   BACKBONE|DICT|INTERRES
    61   29   99 1    
    62   30   31 2    
    63   30   32 1    
    64   32   33 1    
    65   32   34 1    
    66   32  100 1    
    67   33  101 1    
    68   33  102 1    
    69   33  103 1    
    70   34   35 am   BACKBONE|DICT|INTERRES
    71   34  104 1    
    72   35   36 2    
    73   37   38 2    
    74   37   39 am   BACKBONE|DICT|INTERRES
    75   39   40 1    
    76   39  105 1    
    77   40   41 1    
    78   40   42 1    
    79   40  106 1    
    80   41  107 1    
    81   41  108 1    
    82   41  109 1    
    83   42   43 2    
    84   42   44 am   BACKBONE|DICT|INTERRES
    85   44   45 1    
    86   44  110 1    
    87   45   46 1    
    88   45   47 1    
    89   45  111 1    
    90   46  112 1    
    91   46  113 1    
    92   46  114 1    
    93   47   48 2    
    94   47   49 am   BACKBONE|DICT|INTERRES
    95   49   50 1    
    96   49  115 1    
    97   50   51 1    
    98   50   52 1    
    99   50  116 1    
   100   51  117 1    
   101   51  118 1    
   102   51  119 1    
   103   52   53 2    
   104   52   54 am   BACKBONE|DICT|INTERRES
   105   54   55 1    
   106   54  120 1    
   107   55   56 1    
   108   55   57 1    
   109   55  121 1    
   110   56  122 1    
   111   56  123 1    
   112   56  124 1    
   113   57   58 2    
   114   57   59 am   BACKBONE|DICT|INTERRES
   115   59   60 1    
   116   59  125 1    
   117   60   61 1    
   118   60   62 1    
   119   60  126 1    
   120   61  127 1    
   121   61  128 1    
   122   61  129 1    
   123   62   63 2    
   124   62   64 am   BACKBONE|DICT|INTERRES
   125   64   65 1    
   126   64  130 1    
   127   65   66 1    
   128   65   69 1    
   129   65  131 1    
   130   66   67 am   BACKBONE|DICT|INTERRES
   131   66   68 2    
   132   67  132 1    
   133   67  133 1    
   134   69   70 1    
   135   69  134 1    
   136   69  135 1    
   137   70   71 1    
   138   71  136 1    
   139   71  137 1    
@<TRIPOS>SUBSTRUCTURE
     1 UNK         1 GROUP             0       ****    0 ROOT    
