@<TRIPOS>MOLECULE
3R136
137   139    1
SMALL
USER_CHARGES


@<TRIPOS>ATOM
      1 CA         26.0085   20.0720    2.5934 C.3       0 UNK        -0.1979 
      2 C          26.7732   21.1847    1.8921 C.2       0 UNK         0.4864 
      3 O          26.4882   21.4864    0.7329 O.2       0 UNK        -0.5359 
      4 N          27.7440   21.7946    2.5856 N.am      1 UNK        -0.4318 
      5 CA         28.5896   22.8781    2.0661 C.3       1 UNK         0.0824 
      6 C6         29.8579   23.1084    2.9313 C.3       12 UNK        -0.0944 
      7 S7         30.7511   21.5897    3.4138 S.3       12 UNK        -0.2672 
      8 C8         31.6150   21.1161    1.8797 C.3       12 UNK         0.0333 
      9 C9         32.5291   22.2027    1.3244 C.ar      12 UNK        -0.0807 
     10 C10        33.4585   22.8569    2.1432 C.ar      12 UNK        -0.0894 
     11 C11        34.2884   23.8551    1.6219 C.ar      12 UNK        -0.0804 
     12 C12        34.1978   24.1793    0.2648 C.ar      12 UNK        -0.0824 
     13 C13        33.2689   23.5407   -0.5604 C.ar      12 UNK        -0.0762 
     14 C14        32.4451   22.5462   -0.0281 C.ar      12 UNK        -0.0782 
     15 C15        33.1169   23.9698   -2.0136 C.3       12 UNK         0.0230 
     16 S16        31.5306   24.8211   -2.3141 S.3       12 UNK        -0.2608 
     17 C17        31.4281   25.9267   -0.8643 C.3       12 UNK        -0.0989 
     18 CA         30.3609   27.0436   -0.9744 C.3       5 UNK         0.0716 
     19 N          29.0133   26.5260   -1.2193 N.am      5 UNK        -0.4135 
     20 C          28.3851   26.5580   -2.4016 C.2       4 UNK         0.5031 
     21 O          28.8582   27.0440   -3.4304 O.2       4 UNK        -0.5229 
     22 CA         26.9715   25.9559   -2.4392 C.3       4 UNK         0.0329 
     23 CB         27.0267   24.4198   -2.3833 C.3       4 UNK        -0.2001 
     24 N          26.1343   26.4559   -1.3505 N.am      4 UNK        -0.4303 
     25 C          25.7267   27.7233   -1.2035 C.2       3 UNK         0.5044 
     26 O          25.9331   28.6070   -2.0360 O.2       3 UNK        -0.5152 
     27 CA         24.9857   28.0868    0.0958 C.3       3 UNK         0.0319 
     28 CB         23.4583   27.9673   -0.0734 C.3       3 UNK        -0.2001 
     29 N          25.4666   27.3681    1.2844 N.am      3 UNK        -0.4354 
     30 C          25.3370   26.0718    1.5955 C.2       2 UNK         0.4964 
     31 O          24.7481   25.2436    0.8983 O.2       2 UNK        -0.5047 
     32 CA         25.9972   25.6239    2.9064 C.3       2 UNK         0.0288 
     33 CB         24.9357   25.4103    3.9972 C.3       2 UNK        -0.2113 
     34 N          26.7870   24.3992    2.7598 N.am      2 UNK        -0.4145 
     35 C          27.8255   24.2131    1.9291 C.2       1 UNK         0.5006 
     36 O          28.2286   25.0604    1.1273 O.2       1 UNK        -0.5103 
     37 C          30.3817   27.8911    0.3085 C.2       5 UNK         0.5055 
     38 O          30.9202   28.9988    0.2930 O.2       5 UNK        -0.5220 
     39 N          29.8439   27.3397    1.4052 N.am      6 UNK        -0.4450 
     40 CA         29.8930   27.9364    2.7369 C.3       6 UNK         0.0367 
     41 CB         29.8251   26.8213    3.7933 C.3       6 UNK        -0.1929 
     42 C          28.7581   28.9440    2.9493 C.2       6 UNK         0.5070 
     43 O          27.6495   28.7474    2.4460 O.2       6 UNK        -0.5237 
     44 N          29.0509   29.9752    3.7417 N.am      7 UNK        -0.4739 
     45 CA         28.1316   31.0197    4.1785 C.3       7 UNK         0.0276 
     46 CB         27.8729   32.0198    3.0283 C.3       7 UNK        -0.1927 
     47 C          28.7309   31.6614    5.4413 C.2       7 UNK         0.5013 
     48 O          29.4327   30.9803    6.1933 O.2       7 UNK        -0.5193 
     49 N          28.4879   32.9637    5.6394 N.am      8 UNK        -0.4253 
     50 CA         29.0920   33.7798    6.7003 C.3       8 UNK         0.0242 
     51 CB         28.2482   35.0533    6.8842 C.3       8 UNK        -0.2000 
     52 C          30.5722   34.1399    6.4425 C.2       8 UNK         0.4948 
     53 O          31.2063   34.7306    7.3182 O.2       8 UNK        -0.5275 
     54 N          31.0908   33.7974    5.2580 N.am      9 UNK        -0.4246 
     55 CA         32.4720   33.9763    4.8248 C.3       9 UNK         0.0261 
     56 CB         32.5381   35.1689    3.8535 C.3       9 UNK        -0.1959 
     57 C          32.9481   32.6805    4.1516 C.2       9 UNK         0.5033 
     58 O          32.1390   31.7751    3.9166 O.2       9 UNK        -0.5390 
     59 N          34.2538   32.6197    3.8516 N.am      10 UNK        -0.4215 
     60 CA         34.9651   31.4856    3.2490 C.3       10 UNK         0.0240 
     61 CB         34.5242   31.2788    1.7797 C.3       10 UNK        -0.1982 
     62 C          34.8440   30.2316    4.1355 C.2       10 UNK         0.4970 
     63 O          35.2974   30.2690    5.2808 O.2       10 UNK        -0.4916 
     64 N          34.2241   29.1681    3.6128 N.am      11 UNK        -0.4279 
     65 CA         33.8921   27.9415    4.3538 C.3       11 UNK         0.1003 
     66 C          32.7125   28.1061    5.3594 C.2       11 UNK         0.5709 
     67 N          32.0036   29.2312    5.3915 N.am      11 UNK        -0.7358 
     68 O          32.4432   27.1942    6.1366 O.2       11 UNK        -0.4999 
     69 C69        33.6733   26.7413    3.3916 C.3       12 UNK        -0.0954 
     70 S70        35.1706   26.3862    2.4097 S.3       12 UNK        -0.2268 
     71 C71        35.2966   24.5688    2.5160 C.3       12 UNK         0.0203 
     72 H72        26.1132   19.1390    2.0402 H         1 UNK         0.0888 
     73 H73        24.9488   20.3204    2.6458 H         1 UNK         0.0888 
     74 H74        26.3688   19.9059    3.6085 H         1 UNK         0.0888 
     75 H75        27.9645   21.4805    3.5207 H         1 UNK         0.3017 
     76 H76        28.9148   22.5935    1.0630 H         1 UNK         0.0873 
     77 H77        30.5489   23.7816    2.4203 H         1 UNK         0.0745 
     78 H78        29.5937   23.6122    3.8635 H         1 UNK         0.0745 
     79 H79        32.2128   20.2255    2.0771 H         1 UNK         0.0705 
     80 H80        30.8656   20.8244    1.1421 H         1 UNK         0.0705 
     81 H81        33.5280   22.5915    3.1893 H         1 UNK         0.1334 
     82 H82        34.8357   24.9521   -0.1422 H         1 UNK         0.1417 
     83 H83        31.7228   22.0581   -0.6686 H         1 UNK         0.1562 
     84 H84        33.1830   23.0955   -2.6625 H         1 UNK         0.0748 
     85 H85        33.9321   24.6328   -2.3077 H         1 UNK         0.0748 
     86 H86        32.4135   26.3707   -0.7067 H         1 UNK         0.0940 
     87 H87        31.2305   25.3032    0.0105 H         1 UNK         0.0940 
     88 H88        30.6509   27.7079   -1.7914 H         1 UNK         0.0703 
     89 H89        28.5482   26.0838   -0.4318 H         1 UNK         0.3081 
     90 H90        26.5064   26.2475   -3.3833 H         1 UNK         0.0719 
     91 H91        27.4390   24.0599   -1.4396 H         1 UNK         0.0809 
     92 H92        26.0345   23.9836   -2.5004 H         1 UNK         0.0809 
     93 H93        27.6521   24.0230   -3.1843 H         1 UNK         0.0809 
     94 H94        25.8657   25.7963   -0.6272 H         1 UNK         0.2990 
     95 H95        25.2096   29.1369    0.2913 H         1 UNK         0.0690 
     96 H96        22.9340   28.2691    0.8333 H         1 UNK         0.0788 
     97 H97        23.1501   26.9505   -0.3179 H         1 UNK         0.0788 
     98 H98        23.1077   28.6116   -0.8807 H         1 UNK         0.0788 
     99 H99        26.0837   27.9259    1.8748 H         1 UNK         0.2993 
    100 H100       26.6715   26.4116    3.2428 H         1 UNK         0.0949 
    101 H101       24.3420   26.3136    4.1461 H         1 UNK         0.0767 
    102 H102       24.2460   24.6064    3.7358 H         1 UNK         0.0767 
    103 H103       25.3932   25.1641    4.9557 H         1 UNK         0.0767 
    104 H104       26.5259   23.6283    3.3559 H         1 UNK         0.3013 
    105 H105       29.3430   26.4580    1.3280 H         1 UNK         0.3121 
    106 H106       30.8455   28.4586    2.8497 H         1 UNK         0.0774 
    107 H107       30.6575   26.1252    3.6935 H         1 UNK         0.0815 
    108 H108       28.9026   26.2498    3.7272 H         1 UNK         0.0815 
    109 H109       29.8681   27.2342    4.8017 H         1 UNK         0.0815 
    110 H110       29.9675   30.0269    4.1708 H         1 UNK         0.2987 
    111 H111       27.1866   30.5563    4.4699 H         1 UNK         0.0949 
    112 H112       28.7820   32.5518    2.7440 H         1 UNK         0.0806 
    113 H113       27.4996   31.5126    2.1384 H         1 UNK         0.0806 
    114 H114       27.1194   32.7598    3.2995 H         1 UNK         0.0806 
    115 H115       27.9044   33.4508    4.9743 H         1 UNK         0.3010 
    116 H116       29.0593   33.2114    7.6324 H         1 UNK         0.0829 
    117 H117       27.2134   34.8129    7.1288 H         1 UNK         0.0813 
    118 H118       28.6360   35.6660    7.6994 H         1 UNK         0.0813 
    119 H119       28.2480   35.6710    5.9852 H         1 UNK         0.0813 
    120 H120       30.5364   33.2216    4.6395 H         1 UNK         0.3038 
    121 H121       33.1165   34.1657    5.6858 H         1 UNK         0.0769 
    122 H122       31.9399   34.9926    2.9585 H         1 UNK         0.0811 
    123 H123       33.5610   35.3641    3.5300 H         1 UNK         0.0811 
    124 H124       32.1715   36.0812    4.3245 H         1 UNK         0.0811 
    125 H125       34.8370   33.4014    4.1171 H         1 UNK         0.3204 
    126 H126       36.0238   31.7493    3.2404 H         1 UNK         0.0748 
    127 H127       34.6913   32.1830    1.1943 H         1 UNK         0.0771 
    128 H128       35.0987   30.4831    1.3031 H         1 UNK         0.0771 
    129 H129       33.4667   31.0258    1.6912 H         1 UNK         0.0771 
    130 H130       33.8723   29.2278    2.6693 H         1 UNK         0.2980 
    131 H131       34.7566   27.6971    4.9742 H         1 UNK         0.0545 
    132 H132       31.2681   29.3318    6.0746 H         1 UNK         0.3459 
    133 H133       32.2387   30.0187    4.7965 H         1 UNK         0.3459 
    134 H134       33.3974   25.8451    3.9502 H         1 UNK         0.0616 
    135 H135       32.8503   26.9391    2.7033 H         1 UNK         0.0616 
    136 H136       36.3001   24.2733    2.2076 H         1 UNK         0.0634 
    137 H137       35.1918   24.2601    3.5572 H         1 UNK         0.0634 
@<TRIPOS>BOND
     1    1    2 1    
     2    1   72 1    
     3    1   73 1    
     4    1   74 1    
     5    2    3 2    
     6    2    4 am   BACKBONE|DICT|INTERRES
     7    4    5 1    
     8    4   75 1    
     9    5    6 1    
    10    5   35 1    
    11    5   76 1    
    12    6    7 1    
    13    6   77 1    
    14    6   78 1    
    15    7    8 1    
    16    8    9 1    
    17    8   79 1    
    18    8   80 1    
    19    9   10 ar   
    20    9   14 ar   
    21   10   11 ar   
    22   10   81 1    
    23   11   12 ar   
    24   11   71 1    
    25   12   13 ar   
    26   12   82 1    
    27   13   14 ar   
    28   13   15 1    
    29   14   83 1    
    30   15   16 1    
    31   15   84 1    
    32   15   85 1    
    33   16   17 1    
    34   17   18 1    
    35   17   86 1    
    36   17   87 1    
    37   18   19 1    
    38   18   37 1    
    39   18   88 1    
    40   19   20 am   BACKBONE|DICT|INTERRES
    41   19   89 1    
    42   20   21 2    
    43   20   22 1    
    44   22   23 1    
    45   22   24 1    
    46   22   90 1    
    47   23   91 1    
    48   23   92 1    
    49   23   93 1    
    50   24   25 am   BACKBONE|DICT|INTERRES
    51   24   94 1    
    52   25   26 2    
    53   25   27 1    
    54   27   28 1    
    55   27   29 1    
    56   27   95 1    
    57   28   96 1    
    58   28   97 1    
    59   28   98 1    
    60   29   30 am   BACKBONE|DICT|INTERRES
    61   29   99 1    
    62   30   31 2    
    63   30   32 1    
    64   32   33 1    
    65   32   34 1    
    66   32  100 1    
    67   33  101 1    
    68   33  102 1    
    69   33  103 1    
    70   34   35 am   BACKBONE|DICT|INTERRES
    71   34  104 1    
    72   35   36 2    
    73   37   38 2    
    74   37   39 am   BACKBONE|DICT|INTERRES
    75   39   40 1    
    76   39  105 1    
    77   40   41 1    
    78   40   42 1    
    79   40  106 1    
    80   41  107 1    
    81   41  108 1    
    82   41  109 1    
    83   42   43 2    
    84   42   44 am   BACKBONE|DICT|INTERRES
    85   44   45 1    
    86   44  110 1    
    87   45   46 1    
    88   45   47 1    
    89   45  111 1    
    90   46  112 1    
    91   46  113 1    
    92   46  114 1    
    93   47   48 2    
    94   47   49 am   BACKBONE|DICT|INTERRES
    95   49   50 1    
    96   49  115 1    
    97   50   51 1    
    98   50   52 1    
    99   50  116 1    
   100   51  117 1    
   101   51  118 1    
   102   51  119 1    
   103   52   53 2    
   104   52   54 am   BACKBONE|DICT|INTERRES
   105   54   55 1    
   106   54  120 1    
   107   55   56 1    
   108   55   57 1    
   109   55  121 1    
   110   56  122 1    
   111   56  123 1    
   112   56  124 1    
   113   57   58 2    
   114   57   59 am   BACKBONE|DICT|INTERRES
   115   59   60 1    
   116   59  125 1    
   117   60   61 1    
   118   60   62 1    
   119   60  126 1    
   120   61  127 1    
   121   61  128 1    
   122   61  129 1    
   123   62   63 2    
   124   62   64 am   BACKBONE|DICT|INTERRES
   125   64   65 1    
   126   64  130 1    
   127   65   66 1    
   128   65   69 1    
   129   65  131 1    
   130   66   67 am   BACKBONE|DICT|INTERRES
   131   66   68 2    
   132   67  132 1    
   133   67  133 1    
   134   69   70 1    
   135   69  134 1    
   136   69  135 1    
   137   70   71 1    
   138   71  136 1    
   139   71  137 1    
@<TRIPOS>SUBSTRUCTURE
     1 UNK         1 GROUP             0       ****    0 ROOT    
