@<TRIPOS>MOLECULE
3R136
137   139    1
SMALL
USER_CHARGES


@<TRIPOS>ATOM
      1 CA         25.5440   28.3310    1.5931 C.3       0 UNK        -0.1979 
      2 C          25.8714   26.8460    1.5908 C.2       0 UNK         0.4864 
      3 O          26.4618   26.3568    0.6275 O.2       0 UNK        -0.5359 
      4 N          25.4782   26.1412    2.6615 N.am      1 UNK        -0.4318 
      5 CA         25.5795   24.6889    2.8654 C.3       1 UNK         0.0824 
      6 C6         27.0150   24.2015    3.2499 C.3       12 UNK        -0.0944 
      7 S7         28.2036   23.9627    1.8825 S.3       12 UNK        -0.2672 
      8 C8         29.7074   23.4155    2.7619 C.3       12 UNK         0.0333 
      9 C9         30.8813   24.3557    2.5139 C.ar      12 UNK        -0.0807 
     10 C10        31.5647   24.9477    3.5815 C.ar      12 UNK        -0.0894 
     11 C11        32.6260   25.8294    3.3434 C.ar      12 UNK        -0.0804 
     12 C12        32.9931   26.1293    2.0274 C.ar      12 UNK        -0.0824 
     13 C13        32.3252   25.5336    0.9542 C.ar      12 UNK        -0.0762 
     14 C14        31.2900   24.6303    1.2061 C.ar      12 UNK        -0.0782 
     15 C15        32.7001   25.8762   -0.4805 C.3       12 UNK         0.0230 
     16 S16        31.8926   27.4098   -1.0451 S.3       12 UNK        -0.2608 
     17 C17        30.1243   26.9985   -0.8267 C.3       12 UNK        -0.0989 
     18 CA         29.1344   28.0423   -1.4104 C.3       5 UNK         0.0716 
     19 N          27.8237   27.4189   -1.5752 N.am      5 UNK        -0.4135 
     20 C          27.0245   27.4949   -2.6427 C.2       4 UNK         0.5031 
     21 O          27.2786   28.1468   -3.6580 O.2       4 UNK        -0.5229 
     22 CA         25.7419   26.6418   -2.5496 C.3       4 UNK         0.0329 
     23 CB         24.8669   26.6972   -3.8207 C.3       4 UNK        -0.2001 
     24 N          26.0604   25.2572   -2.1637 N.am      4 UNK        -0.4303 
     25 C          26.8015   24.3793   -2.8601 C.2       3 UNK         0.5044 
     26 O          27.1863   24.5664   -4.0150 O.2       3 UNK        -0.5152 
     27 CA         27.2357   23.0835   -2.1521 C.3       3 UNK         0.0319 
     28 CB         28.7278   23.1568   -1.7896 C.3       3 UNK        -0.2001 
     29 N          26.4796   22.7781   -0.9361 N.am      3 UNK        -0.4354 
     30 C          25.3028   22.1363   -0.9111 C.2       2 UNK         0.4964 
     31 O          24.6852   21.8035   -1.9231 O.2       2 UNK        -0.5047 
     32 CA         24.7269   21.7733    0.4716 C.3       2 UNK         0.0288 
     33 CB         25.0301   20.3036    0.8072 C.3       2 UNK        -0.2113 
     34 N          25.2426   22.6231    1.5485 N.am      2 UNK        -0.4145 
     35 C          24.8454   23.8841    1.7618 C.2       1 UNK         0.5006 
     36 O          23.9156   24.4046    1.1379 O.2       1 UNK        -0.5103 
     37 C          29.0052   29.3022   -0.5246 C.2       5 UNK         0.5055 
     38 O          27.8977   29.7405   -0.2057 O.2       5 UNK        -0.5220 
     39 N          30.1559   29.8608   -0.1329 N.am      6 UNK        -0.4450 
     40 CA         30.2899   30.9457    0.8409 C.3       6 UNK         0.0367 
     41 CB         31.7101   31.5220    0.7360 C.3       6 UNK        -0.1929 
     42 C          29.9884   30.4983    2.2843 C.2       6 UNK         0.5070 
     43 O          29.5687   31.3293    3.0909 O.2       6 UNK        -0.5237 
     44 N          30.2024   29.2040    2.5765 N.am      7 UNK        -0.4739 
     45 CA         29.9318   28.5081    3.8411 C.3       7 UNK         0.0276 
     46 CB         28.4296   28.1885    3.9660 C.3       7 UNK        -0.1927 
     47 C          30.5191   29.2381    5.0608 C.2       7 UNK         0.5013 
     48 O          31.7352   29.2222    5.2310 O.2       7 UNK        -0.5193 
     49 N          29.6688   29.8963    5.8610 N.am      8 UNK        -0.4253 
     50 CA         30.0468   30.6726    7.0473 C.3       8 UNK         0.0242 
     51 CB         28.7723   31.1844    7.7384 C.3       8 UNK        -0.2000 
     52 C          31.0173   31.8401    6.7756 C.2       8 UNK         0.4948 
     53 O          31.7133   32.2600    7.7007 O.2       8 UNK        -0.5275 
     54 N          31.0634   32.3350    5.5301 N.am      9 UNK        -0.4246 
     55 CA         32.0107   33.3580    5.0799 C.3       9 UNK         0.0261 
     56 CB         31.3375   34.2191    3.9965 C.3       9 UNK        -0.1959 
     57 C          33.3557   32.7766    4.5918 C.2       9 UNK         0.5033 
     58 O          34.2169   33.5551    4.1781 O.2       9 UNK        -0.5390 
     59 N          33.5295   31.4490    4.6364 N.am      10 UNK        -0.4215 
     60 CA         34.7464   30.7306    4.2569 C.3       10 UNK         0.0240 
     61 CB         34.5261   30.0777    2.8775 C.3       10 UNK        -0.1982 
     62 C          35.1236   29.7169    5.3530 C.2       10 UNK         0.4970 
     63 O          34.5672   29.7656    6.4523 O.2       10 UNK        -0.4916 
     64 N          36.0852   28.8348    5.0436 N.am      11 UNK        -0.4279 
     65 CA         36.6106   27.7721    5.9247 C.3       11 UNK         0.1003 
     66 C          37.3628   28.2873    7.1926 C.2       11 UNK         0.5709 
     67 N          37.8137   29.5359    7.2308 N.am      11 UNK        -0.7358 
     68 O          37.5787   27.5391    8.1437 O.2       11 UNK        -0.4999 
     69 C69        35.5553   26.6710    6.2483 C.3       12 UNK        -0.0954 
     70 S70        34.9971   25.7581    4.7694 S.3       12 UNK        -0.2268 
     71 C71        33.3549   26.4882    4.5041 C.3       12 UNK         0.0203 
     72 H72        25.1882   28.6392    0.6103 H         1 UNK         0.0888 
     73 H73        24.7736   28.5772    2.3234 H         1 UNK         0.0888 
     74 H74        26.4346   28.9121    1.8266 H         1 UNK         0.0888 
     75 H75        24.9780   26.6280    3.3916 H         1 UNK         0.3017 
     76 H76        24.9672   24.5156    3.7517 H         1 UNK         0.0873 
     77 H77        26.9428   23.2570    3.7919 H         1 UNK         0.0745 
     78 H78        27.4569   24.9036    3.9590 H         1 UNK         0.0745 
     79 H79        29.9741   22.4167    2.4141 H         1 UNK         0.0705 
     80 H80        29.5034   23.3248    3.8298 H         1 UNK         0.0705 
     81 H81        31.2664   24.7299    4.5979 H         1 UNK         0.1334 
     82 H82        33.7977   26.8274    1.8398 H         1 UNK         0.1417 
     83 H83        30.7725   24.1649    0.3794 H         1 UNK         0.1562 
     84 H84        32.4324   25.0594   -1.1527 H         1 UNK         0.0748 
     85 H85        33.7818   25.9943   -0.5609 H         1 UNK         0.0748 
     86 H86        29.9095   26.8196    0.2289 H         1 UNK         0.0940 
     87 H87        29.9721   26.0416   -1.3275 H         1 UNK         0.0940 
     88 H88        29.5021   28.3662   -2.3862 H         1 UNK         0.0703 
     89 H89        27.4547   26.9415   -0.7522 H         1 UNK         0.3081 
     90 H90        25.1526   27.0599   -1.7322 H         1 UNK         0.0719 
     91 H91        24.5372   27.7179   -4.0177 H         1 UNK         0.0809 
     92 H92        25.4048   26.3574   -4.7059 H         1 UNK         0.0809 
     93 H93        23.9736   26.0822   -3.7135 H         1 UNK         0.0809 
     94 H94        25.8440   25.0239   -1.2024 H         1 UNK         0.2990 
     95 H95        27.1029   22.2657   -2.8638 H         1 UNK         0.0690 
     96 H96        29.0783   22.2221   -1.3515 H         1 UNK         0.0788 
     97 H97        28.9209   23.9559   -1.0752 H         1 UNK         0.0788 
     98 H98        29.3397   23.3510   -2.6717 H         1 UNK         0.0788 
     99 H99        26.9108   23.0370   -0.0584 H         1 UNK         0.2993 
    100 H100       23.6425   21.8940    0.4164 H         1 UNK         0.0949 
    101 H101       24.6347   19.6380    0.0384 H         1 UNK         0.0767 
    102 H102       26.1027   20.1178    0.8790 H         1 UNK         0.0767 
    103 H103       24.5735   20.0102    1.7528 H         1 UNK         0.0767 
    104 H104       26.0082   22.2560    2.0957 H         1 UNK         0.3013 
    105 H105       31.0134   29.4270   -0.4534 H         1 UNK         0.3121 
    106 H106       29.5761   31.7322    0.5867 H         1 UNK         0.0774 
    107 H107       31.8994   32.2711    1.5041 H         1 UNK         0.0815 
    108 H108       32.4630   30.7427    0.8472 H         1 UNK         0.0815 
    109 H109       31.8696   32.0025   -0.2294 H         1 UNK         0.0815 
    110 H110       30.5958   28.6279    1.8470 H         1 UNK         0.2987 
    111 H111       30.4571   27.5554    3.7873 H         1 UNK         0.0949 
    112 H112       28.2032   27.6938    4.9117 H         1 UNK         0.0806 
    113 H113       28.1299   27.5029    3.1754 H         1 UNK         0.0806 
    114 H114       27.8071   29.0806    3.8923 H         1 UNK         0.0806 
    115 H115       28.6898   29.8934    5.6150 H         1 UNK         0.3010 
    116 H116       30.5566   29.9899    7.7304 H         1 UNK         0.0829 
    117 H117       28.1207   30.3615    8.0329 H         1 UNK         0.0813 
    118 H118       29.0157   31.7413    8.6445 H         1 UNK         0.0813 
    119 H119       28.2024   31.8512    7.0899 H         1 UNK         0.0813 
    120 H120       30.4609   31.9310    4.8176 H         1 UNK         0.3038 
    121 H121       32.2473   34.0182    5.9170 H         1 UNK         0.0769 
    122 H122       32.0094   34.9988    3.6353 H         1 UNK         0.0811 
    123 H123       30.4496   34.7167    4.3865 H         1 UNK         0.0811 
    124 H124       31.0318   33.6260    3.1362 H         1 UNK         0.0811 
    125 H125       32.8073   30.8589    5.0444 H         1 UNK         0.3204 
    126 H126       35.5861   31.4246    4.1841 H         1 UNK         0.0748 
    127 H127       35.3782   29.4771    2.5594 H         1 UNK         0.0771 
    128 H128       33.6447   29.4354    2.8703 H         1 UNK         0.0771 
    129 H129       34.3874   30.8436    2.1154 H         1 UNK         0.0771 
    130 H130       36.5099   28.8828    4.1293 H         1 UNK         0.2980 
    131 H131       37.3966   27.2893    5.3432 H         1 UNK         0.0545 
    132 H132       37.6597   30.1606    6.4563 H         1 UNK         0.3459 
    133 H133       38.3090   29.8558    8.0481 H         1 UNK         0.3459 
    134 H134       35.9772   25.9224    6.9207 H         1 UNK         0.0616 
    135 H135       34.6989   27.0931    6.7760 H         1 UNK         0.0616 
    136 H136       32.7677   26.4128    5.4207 H         1 UNK         0.0634 
    137 H137       33.4720   27.5497    4.2964 H         1 UNK         0.0634 
@<TRIPOS>BOND
     1    1    2 1    
     2    1   72 1    
     3    1   73 1    
     4    1   74 1    
     5    2    3 2    
     6    2    4 am   BACKBONE|DICT|INTERRES
     7    4    5 1    
     8    4   75 1    
     9    5    6 1    
    10    5   35 1    
    11    5   76 1    
    12    6    7 1    
    13    6   77 1    
    14    6   78 1    
    15    7    8 1    
    16    8    9 1    
    17    8   79 1    
    18    8   80 1    
    19    9   10 ar   
    20    9   14 ar   
    21   10   11 ar   
    22   10   81 1    
    23   11   12 ar   
    24   11   71 1    
    25   12   13 ar   
    26   12   82 1    
    27   13   14 ar   
    28   13   15 1    
    29   14   83 1    
    30   15   16 1    
    31   15   84 1    
    32   15   85 1    
    33   16   17 1    
    34   17   18 1    
    35   17   86 1    
    36   17   87 1    
    37   18   19 1    
    38   18   37 1    
    39   18   88 1    
    40   19   20 am   BACKBONE|DICT|INTERRES
    41   19   89 1    
    42   20   21 2    
    43   20   22 1    
    44   22   23 1    
    45   22   24 1    
    46   22   90 1    
    47   23   91 1    
    48   23   92 1    
    49   23   93 1    
    50   24   25 am   BACKBONE|DICT|INTERRES
    51   24   94 1    
    52   25   26 2    
    53   25   27 1    
    54   27   28 1    
    55   27   29 1    
    56   27   95 1    
    57   28   96 1    
    58   28   97 1    
    59   28   98 1    
    60   29   30 am   BACKBONE|DICT|INTERRES
    61   29   99 1    
    62   30   31 2    
    63   30   32 1    
    64   32   33 1    
    65   32   34 1    
    66   32  100 1    
    67   33  101 1    
    68   33  102 1    
    69   33  103 1    
    70   34   35 am   BACKBONE|DICT|INTERRES
    71   34  104 1    
    72   35   36 2    
    73   37   38 2    
    74   37   39 am   BACKBONE|DICT|INTERRES
    75   39   40 1    
    76   39  105 1    
    77   40   41 1    
    78   40   42 1    
    79   40  106 1    
    80   41  107 1    
    81   41  108 1    
    82   41  109 1    
    83   42   43 2    
    84   42   44 am   BACKBONE|DICT|INTERRES
    85   44   45 1    
    86   44  110 1    
    87   45   46 1    
    88   45   47 1    
    89   45  111 1    
    90   46  112 1    
    91   46  113 1    
    92   46  114 1    
    93   47   48 2    
    94   47   49 am   BACKBONE|DICT|INTERRES
    95   49   50 1    
    96   49  115 1    
    97   50   51 1    
    98   50   52 1    
    99   50  116 1    
   100   51  117 1    
   101   51  118 1    
   102   51  119 1    
   103   52   53 2    
   104   52   54 am   BACKBONE|DICT|INTERRES
   105   54   55 1    
   106   54  120 1    
   107   55   56 1    
   108   55   57 1    
   109   55  121 1    
   110   56  122 1    
   111   56  123 1    
   112   56  124 1    
   113   57   58 2    
   114   57   59 am   BACKBONE|DICT|INTERRES
   115   59   60 1    
   116   59  125 1    
   117   60   61 1    
   118   60   62 1    
   119   60  126 1    
   120   61  127 1    
   121   61  128 1    
   122   61  129 1    
   123   62   63 2    
   124   62   64 am   BACKBONE|DICT|INTERRES
   125   64   65 1    
   126   64  130 1    
   127   65   66 1    
   128   65   69 1    
   129   65  131 1    
   130   66   67 am   BACKBONE|DICT|INTERRES
   131   66   68 2    
   132   67  132 1    
   133   67  133 1    
   134   69   70 1    
   135   69  134 1    
   136   69  135 1    
   137   70   71 1    
   138   71  136 1    
   139   71  137 1    
@<TRIPOS>SUBSTRUCTURE
     1 UNK         1 GROUP             0       ****    0 ROOT    
