@<TRIPOS>MOLECULE
3R136
137   139    1
SMALL
USER_CHARGES


@<TRIPOS>ATOM
      1 CA         29.0563   26.4920    3.6052 C.3       0 UNK        -0.1979 
      2 C          28.4332   25.1063    3.5466 C.2       0 UNK         0.4864 
      3 O          27.5755   24.7880    4.3718 O.2       0 UNK        -0.5359 
      4 N          28.8728   24.2752    2.5932 N.am      1 UNK        -0.4318 
      5 CA         28.3902   22.9063    2.3926 C.3       1 UNK         0.0824 
      6 C6         29.4615   22.0345    1.6838 C.3       12 UNK        -0.0944 
      7 S7         29.7685   22.4877   -0.0596 S.3       12 UNK        -0.2672 
      8 C8         31.5611   22.7897   -0.0619 C.3       12 UNK         0.0333 
      9 C9         31.9174   24.1289    0.5652 C.ar      12 UNK        -0.0807 
     10 C10        32.5720   24.1867    1.7990 C.ar      12 UNK        -0.0894 
     11 C11        32.9626   25.4165    2.3387 C.ar      12 UNK        -0.0804 
     12 C12        32.6744   26.5965    1.6444 C.ar      12 UNK        -0.0824 
     13 C13        32.0127   26.5491    0.4129 C.ar      12 UNK        -0.0762 
     14 C14        31.6385   25.3132   -0.1212 C.ar      12 UNK        -0.0782 
     15 C15        31.7372   27.8278   -0.3639 C.3       12 UNK         0.0230 
     16 S16        30.2887   28.7160    0.2797 S.3       12 UNK        -0.2608 
     17 C17        28.9313   27.5308   -0.0300 C.3       12 UNK        -0.0989 
     18 CA         27.5458   28.1698   -0.3147 C.3       5 UNK         0.0716 
     19 N          26.5448   27.1196   -0.4967 N.am      5 UNK        -0.4135 
     20 C          25.3348   27.2918   -1.0418 C.2       4 UNK         0.5031 
     21 O          24.9670   28.3327   -1.5908 O.2       4 UNK        -0.5229 
     22 CA         24.3862   26.0872   -0.9290 C.3       4 UNK         0.0329 
     23 CB         23.0655   26.2598   -1.7111 C.3       4 UNK        -0.2001 
     24 N          25.0610   24.8260   -1.2565 N.am      4 UNK        -0.4303 
     25 C          25.4803   24.3994   -2.4595 C.2       3 UNK         0.5044 
     26 O          25.3440   25.0421   -3.5010 O.2       3 UNK        -0.5152 
     27 CA         26.1830   23.0235   -2.5272 C.3       3 UNK         0.0319 
     28 CB         27.6352   23.1866   -3.0076 C.3       3 UNK        -0.2001 
     29 N          26.1875   22.2909   -1.2562 N.am      3 UNK        -0.4354 
     30 C          25.1092   21.7678   -0.6536 C.2       2 UNK         0.4964 
     31 O          24.0012   21.7069   -1.1871 O.2       2 UNK        -0.5047 
     32 CA         25.2633   21.2707    0.8001 C.3       2 UNK         0.0288 
     33 CB         25.0817   19.7447    0.8672 C.3       2 UNK        -0.2113 
     34 N          26.5228   21.6232    1.4708 N.am      2 UNK        -0.4145 
     35 C          27.0113   22.8549    1.6893 C.2       1 UNK         0.5006 
     36 O          26.4491   23.8889    1.3104 O.2       1 UNK        -0.5103 
     37 C          27.0856   29.1375    0.8009 C.2       5 UNK         0.5055 
     38 O          26.4368   28.7111    1.7594 O.2       5 UNK        -0.5220 
     39 N          27.4796   30.4128    0.6803 N.am      6 UNK        -0.4450 
     40 CA         27.2676   31.4679    1.6799 C.3       6 UNK         0.0367 
     41 CB         27.4428   32.8352    0.9964 C.3       6 UNK        -0.1929 
     42 C          28.1902   31.3571    2.9138 C.2       6 UNK         0.5070 
     43 O          28.0919   32.1922    3.8140 O.2       6 UNK        -0.5237 
     44 N          29.0853   30.3594    2.9237 N.am      7 UNK        -0.4739 
     45 CA         30.1011   30.0211    3.9247 C.3       7 UNK         0.0276 
     46 CB         29.4974   29.8220    5.3292 C.3       7 UNK        -0.1927 
     47 C          31.2822   30.9994    3.9363 C.2       7 UNK         0.5013 
     48 O          32.4211   30.5606    3.7648 O.2       7 UNK        -0.5193 
     49 N          30.9871   32.2946    4.1140 N.am      8 UNK        -0.4253 
     50 CA         31.9183   33.4287    4.1181 C.3       8 UNK         0.0242 
     51 CB         32.3351   33.7560    2.6655 C.3       8 UNK        -0.2000 
     52 C          33.1079   33.2151    5.0801 C.2       8 UNK         0.4948 
     53 O          32.9139   32.6914    6.1788 O.2       8 UNK        -0.5275 
     54 N          34.3181   33.5987    4.6551 N.am      9 UNK        -0.4246 
     55 CA         35.5650   33.3601    5.3866 C.3       9 UNK         0.0261 
     56 CB         36.6337   34.3456    4.8843 C.3       9 UNK        -0.1959 
     57 C          36.0745   31.9097    5.2698 C.2       9 UNK         0.5033 
     58 O          36.9302   31.5168    6.0640 O.2       9 UNK        -0.5390 
     59 N          35.5768   31.1513    4.2813 N.am      10 UNK        -0.4215 
     60 CA         35.9899   29.7752    4.0024 C.3       10 UNK         0.0240 
     61 CB         35.5912   29.3937    2.5657 C.3       10 UNK        -0.1982 
     62 C          35.4165   28.7736    5.0150 C.2       10 UNK         0.4970 
     63 O          36.1711   27.9579    5.5458 O.2       10 UNK        -0.4916 
     64 N          34.1010   28.8490    5.2451 N.am      11 UNK        -0.4279 
     65 CA         33.3418   27.9500    6.1278 C.3       11 UNK         0.1003 
     66 C          32.7408   28.6607    7.3732 C.2       11 UNK         0.5709 
     67 N          32.8082   29.9800    7.5020 N.am      11 UNK        -0.7358 
     68 O          32.2121   27.9938    8.2591 O.2       11 UNK        -0.4999 
     69 C69        32.2667   27.1615    5.3181 C.3       12 UNK        -0.0954 
     70 S70        32.6906   25.4032    5.1099 S.3       12 UNK        -0.2268 
     71 C71        33.7557   25.4546    3.6369 C.3       12 UNK         0.0203 
     72 H72        29.3046   26.7395    4.6356 H         1 UNK         0.0888 
     73 H73        29.9703   26.5523    3.0143 H         1 UNK         0.0888 
     74 H74        28.3519   27.2382    3.2389 H         1 UNK         0.0888 
     75 H75        29.5758   24.5831    1.9363 H         1 UNK         0.3017 
     76 H76        28.2351   22.4712    3.3825 H         1 UNK         0.0873 
     77 H77        30.3959   22.0882    2.2446 H         1 UNK         0.0745 
     78 H78        29.1819   20.9803    1.7111 H         1 UNK         0.0745 
     79 H79        31.9145   22.7761   -1.0940 H         1 UNK         0.0705 
     80 H80        32.0724   21.9683    0.4426 H         1 UNK         0.0705 
     81 H81        32.8059   23.2729    2.3282 H         1 UNK         0.1334 
     82 H82        32.9800   27.5509    2.0507 H         1 UNK         0.1417 
     83 H83        31.1432   25.2668   -1.0817 H         1 UNK         0.1562 
     84 H84        31.5912   27.6161   -1.4244 H         1 UNK         0.0748 
     85 H85        32.6066   28.4841   -0.3029 H         1 UNK         0.0748 
     86 H86        28.8721   26.8536    0.8213 H         1 UNK         0.0940 
     87 H87        29.2083   26.9077   -0.8818 H         1 UNK         0.0940 
     88 H88        27.6142   28.7332   -1.2481 H         1 UNK         0.0703 
     89 H89        26.7283   26.2415   -0.0325 H         1 UNK         0.3081 
     90 H90        24.1236   26.0153    0.1277 H         1 UNK         0.0719 
     91 H91        22.5055   27.1188   -1.3398 H         1 UNK         0.0809 
     92 H92        23.2371   26.4250   -2.7749 H         1 UNK         0.0809 
     93 H93        22.4243   25.3847   -1.6053 H         1 UNK         0.0809 
     94 H94        25.2904   24.2449   -0.4577 H         1 UNK         0.2990 
     95 H95        25.6440   22.4211   -3.2613 H         1 UNK         0.0690 
     96 H96        28.1432   22.2246   -3.0792 H         1 UNK         0.0788 
     97 H97        28.2121   23.8231   -2.3355 H         1 UNK         0.0788 
     98 H98        27.6711   23.6440   -3.9972 H         1 UNK         0.0788 
     99 H99        27.0594   22.2919   -0.7456 H         1 UNK         0.2993 
    100 H100       24.4568   21.7357    1.3709 H         1 UNK         0.0949 
    101 H101       25.8772   19.2209    0.3354 H         1 UNK         0.0767 
    102 H102       25.0741   19.3893    1.8980 H         1 UNK         0.0767 
    103 H103       24.1349   19.4407    0.4180 H         1 UNK         0.0767 
    104 H104       27.0675   20.8388    1.7988 H         1 UNK         0.3013 
    105 H105       28.0320   30.6690   -0.1265 H         1 UNK         0.3121 
    106 H106       26.2401   31.3958    2.0428 H         1 UNK         0.0774 
    107 H107       27.2341   33.6507    1.6904 H         1 UNK         0.0815 
    108 H108       28.4598   32.9747    0.6278 H         1 UNK         0.0815 
    109 H109       26.7597   32.9497    0.1545 H         1 UNK         0.0815 
    110 H110       29.1162   29.7838    2.0924 H         1 UNK         0.2987 
    111 H111       30.5015   29.0608    3.6015 H         1 UNK         0.0949 
    112 H112       28.6810   29.1005    5.3122 H         1 UNK         0.0806 
    113 H113       30.2465   29.4485    6.0257 H         1 UNK         0.0806 
    114 H114       29.1111   30.7506    5.7494 H         1 UNK         0.0806 
    115 H115       30.0039   32.5185    4.2390 H         1 UNK         0.3010 
    116 H116       31.3619   34.2818    4.5088 H         1 UNK         0.0829 
    117 H117       31.4588   33.8839    2.0295 H         1 UNK         0.0813 
    118 H118       32.8996   34.6874    2.6079 H         1 UNK         0.0813 
    119 H119       32.9425   32.9632    2.2264 H         1 UNK         0.0813 
    120 H120       34.3967   34.0332    3.7466 H         1 UNK         0.3038 
    121 H121       35.3916   33.5595    6.4466 H         1 UNK         0.0769 
    122 H122       37.5684   34.2211    5.4331 H         1 UNK         0.0811 
    123 H123       36.3165   35.3796    5.0212 H         1 UNK         0.0811 
    124 H124       36.8558   34.1982    3.8266 H         1 UNK         0.0811 
    125 H125       34.8393   31.5311    3.7052 H         1 UNK         0.3204 
    126 H126       37.0791   29.7252    4.0694 H         1 UNK         0.0748 
    127 H127       35.8732   28.3638    2.3418 H         1 UNK         0.0771 
    128 H128       34.5166   29.4802    2.4025 H         1 UNK         0.0771 
    129 H129       36.0908   30.0307    1.8357 H         1 UNK         0.0771 
    130 H130       33.5529   29.5468    4.7449 H         1 UNK         0.2980 
    131 H131       34.0334   27.2306    6.5693 H         1 UNK         0.0545 
    132 H132       32.4159   30.4046    8.3267 H         1 UNK         0.3459 
    133 H133       33.2010   30.5746    6.7862 H         1 UNK         0.3459 
    134 H134       31.2928   27.1838    5.8088 H         1 UNK         0.0616 
    135 H135       32.1023   27.6022    4.3355 H         1 UNK         0.0616 
    136 H136       34.4309   24.5985    3.6721 H         1 UNK         0.0634 
    137 H137       34.3944   26.3374    3.6703 H         1 UNK         0.0634 
@<TRIPOS>BOND
     1    1    2 1    
     2    1   72 1    
     3    1   73 1    
     4    1   74 1    
     5    2    3 2    
     6    2    4 am   BACKBONE|DICT|INTERRES
     7    4    5 1    
     8    4   75 1    
     9    5    6 1    
    10    5   35 1    
    11    5   76 1    
    12    6    7 1    
    13    6   77 1    
    14    6   78 1    
    15    7    8 1    
    16    8    9 1    
    17    8   79 1    
    18    8   80 1    
    19    9   10 ar   
    20    9   14 ar   
    21   10   11 ar   
    22   10   81 1    
    23   11   12 ar   
    24   11   71 1    
    25   12   13 ar   
    26   12   82 1    
    27   13   14 ar   
    28   13   15 1    
    29   14   83 1    
    30   15   16 1    
    31   15   84 1    
    32   15   85 1    
    33   16   17 1    
    34   17   18 1    
    35   17   86 1    
    36   17   87 1    
    37   18   19 1    
    38   18   37 1    
    39   18   88 1    
    40   19   20 am   BACKBONE|DICT|INTERRES
    41   19   89 1    
    42   20   21 2    
    43   20   22 1    
    44   22   23 1    
    45   22   24 1    
    46   22   90 1    
    47   23   91 1    
    48   23   92 1    
    49   23   93 1    
    50   24   25 am   BACKBONE|DICT|INTERRES
    51   24   94 1    
    52   25   26 2    
    53   25   27 1    
    54   27   28 1    
    55   27   29 1    
    56   27   95 1    
    57   28   96 1    
    58   28   97 1    
    59   28   98 1    
    60   29   30 am   BACKBONE|DICT|INTERRES
    61   29   99 1    
    62   30   31 2    
    63   30   32 1    
    64   32   33 1    
    65   32   34 1    
    66   32  100 1    
    67   33  101 1    
    68   33  102 1    
    69   33  103 1    
    70   34   35 am   BACKBONE|DICT|INTERRES
    71   34  104 1    
    72   35   36 2    
    73   37   38 2    
    74   37   39 am   BACKBONE|DICT|INTERRES
    75   39   40 1    
    76   39  105 1    
    77   40   41 1    
    78   40   42 1    
    79   40  106 1    
    80   41  107 1    
    81   41  108 1    
    82   41  109 1    
    83   42   43 2    
    84   42   44 am   BACKBONE|DICT|INTERRES
    85   44   45 1    
    86   44  110 1    
    87   45   46 1    
    88   45   47 1    
    89   45  111 1    
    90   46  112 1    
    91   46  113 1    
    92   46  114 1    
    93   47   48 2    
    94   47   49 am   BACKBONE|DICT|INTERRES
    95   49   50 1    
    96   49  115 1    
    97   50   51 1    
    98   50   52 1    
    99   50  116 1    
   100   51  117 1    
   101   51  118 1    
   102   51  119 1    
   103   52   53 2    
   104   52   54 am   BACKBONE|DICT|INTERRES
   105   54   55 1    
   106   54  120 1    
   107   55   56 1    
   108   55   57 1    
   109   55  121 1    
   110   56  122 1    
   111   56  123 1    
   112   56  124 1    
   113   57   58 2    
   114   57   59 am   BACKBONE|DICT|INTERRES
   115   59   60 1    
   116   59  125 1    
   117   60   61 1    
   118   60   62 1    
   119   60  126 1    
   120   61  127 1    
   121   61  128 1    
   122   61  129 1    
   123   62   63 2    
   124   62   64 am   BACKBONE|DICT|INTERRES
   125   64   65 1    
   126   64  130 1    
   127   65   66 1    
   128   65   69 1    
   129   65  131 1    
   130   66   67 am   BACKBONE|DICT|INTERRES
   131   66   68 2    
   132   67  132 1    
   133   67  133 1    
   134   69   70 1    
   135   69  134 1    
   136   69  135 1    
   137   70   71 1    
   138   71  136 1    
   139   71  137 1    
@<TRIPOS>SUBSTRUCTURE
     1 UNK         1 GROUP             0       ****    0 ROOT    
