@<TRIPOS>MOLECULE
3R136
137   139    1
SMALL
USER_CHARGES


@<TRIPOS>ATOM
      1 CA         30.1973   24.7655   -4.3571 C.3       0 UNK        -0.1979 
      2 C          29.6311   24.6600   -2.9501 C.2       0 UNK         0.4864 
      3 O          28.8203   25.4998   -2.5569 O.2       0 UNK        -0.5359 
      4 N          30.0391   23.6274   -2.1965 N.am      1 UNK        -0.4318 
      5 CA         29.6776   23.3566   -0.7950 C.3       1 UNK         0.0824 
      6 C6         30.2803   22.0206   -0.3030 C.3       12 UNK        -0.0944 
      7 S7         32.0924   22.1327   -0.1338 S.3       12 UNK        -0.2672 
      8 C8         32.3726   21.3487    1.4872 C.3       12 UNK         0.0333 
      9 C9         31.8563   22.1872    2.6508 C.ar      12 UNK        -0.0807 
     10 C10        32.6035   23.2701    3.1244 C.ar      12 UNK        -0.0894 
     11 C11        32.1679   24.0021    4.2340 C.ar      12 UNK        -0.0804 
     12 C12        30.9784   23.6393    4.8716 C.ar      12 UNK        -0.0824 
     13 C13        30.1950   22.5918    4.3787 C.ar      12 UNK        -0.0762 
     14 C14        30.6502   21.8585    3.2788 C.ar      12 UNK        -0.0782 
     15 C15        28.8633   22.2351    5.0318 C.3       12 UNK         0.0230 
     16 S16        27.8097   23.6847    5.3867 S.3       12 UNK        -0.2608 
     17 C17        27.6110   24.4592    3.7392 C.3       12 UNK        -0.0989 
     18 CA         28.3267   25.8315    3.6093 C.3       5 UNK         0.0716 
     19 N          28.3260   26.3356    2.2255 N.am      5 UNK        -0.4135 
     20 C          28.8427   27.5074    1.8109 C.2       4 UNK         0.5031 
     21 O          29.3330   28.3570    2.5599 O.2       4 UNK        -0.5229 
     22 CA         28.8636   27.8053    0.3033 C.3       4 UNK         0.0329 
     23 CB         30.2492   27.4802   -0.2785 C.3       4 UNK        -0.2001 
     24 N          27.8354   27.1329   -0.4929 N.am      4 UNK        -0.4303 
     25 C          26.5347   27.4597   -0.4938 C.2       3 UNK         0.5044 
     26 O          26.0328   28.2722    0.2808 O.2       3 UNK        -0.5152 
     27 CA         25.6446   26.7995   -1.5586 C.3       3 UNK         0.0319 
     28 CB         25.7903   27.5303   -2.9036 C.3       3 UNK        -0.2001 
     29 N          25.9868   25.3903   -1.7390 N.am      3 UNK        -0.4354 
     30 C          25.2765   24.3648   -1.2490 C.2       2 UNK         0.4964 
     31 O          24.1905   24.4889   -0.6813 O.2       2 UNK        -0.5047 
     32 CA         25.8790   22.9533   -1.3990 C.3       2 UNK         0.0288 
     33 CB         25.3096   22.2565   -2.6456 C.3       2 UNK        -0.2113 
     34 N          27.3445   22.9232   -1.4593 N.am      2 UNK        -0.4145 
     35 C          28.1640   23.3986   -0.5095 C.2       1 UNK         0.5006 
     36 O          27.7709   23.9097    0.5387 O.2       1 UNK        -0.5103 
     37 C          27.7799   26.8669    4.6169 C.2       5 UNK         0.5055 
     38 O          26.5690   27.0948    4.6645 O.2       5 UNK        -0.5220 
     39 N          28.7041   27.4823    5.3719 N.am      6 UNK        -0.4450 
     40 CA         28.4974   28.5333    6.3760 C.3       6 UNK         0.0367 
     41 CB         27.7174   27.9762    7.5857 C.3       6 UNK        -0.1929 
     42 C          27.8742   29.8351    5.8246 C.2       6 UNK         0.5070 
     43 O          27.3577   30.6316    6.6104 O.2       6 UNK        -0.5237 
     44 N          27.9324   30.0384    4.5022 N.am      7 UNK        -0.4739 
     45 CA         27.3466   31.1836    3.8025 C.3       7 UNK         0.0276 
     46 CB         26.2518   30.6822    2.8497 C.3       7 UNK        -0.1927 
     47 C          28.4002   31.9840    3.0272 C.2       7 UNK         0.5013 
     48 O          28.2728   33.2066    2.9411 O.2       7 UNK        -0.5193 
     49 N          29.4151   31.3034    2.4757 N.am      8 UNK        -0.4253 
     50 CA         30.5429   31.9369    1.7905 C.3       8 UNK         0.0242 
     51 CB         31.2620   30.8876    0.9294 C.3       8 UNK        -0.2000 
     52 C          31.5141   32.5834    2.7917 C.2       8 UNK         0.4948 
     53 O          31.6144   32.1244    3.9335 O.2       8 UNK        -0.5275 
     54 N          32.2356   33.6175    2.3377 N.am      9 UNK        -0.4246 
     55 CA         33.2557   34.3354    3.1076 C.3       9 UNK         0.0261 
     56 CB         33.7597   35.5388    2.2920 C.3       9 UNK        -0.1959 
     57 C          34.4119   33.3998    3.5008 C.2       9 UNK         0.5033 
     58 O          35.1758   32.9851    2.6273 O.2       9 UNK        -0.5390 
     59 N          34.4717   33.0561    4.7957 N.am      10 UNK        -0.4215 
     60 CA         35.3430   32.0436    5.4092 C.3       10 UNK         0.0240 
     61 CB         36.8325   32.4342    5.2880 C.3       10 UNK        -0.1982 
     62 C          35.0549   30.6053    4.9220 C.2       10 UNK         0.4970 
     63 O          35.9471   29.7569    4.9819 O.2       10 UNK        -0.4916 
     64 N          33.8128   30.3503    4.4837 N.am      11 UNK        -0.4279 
     65 CA         33.3172   29.0768    3.9430 C.3       11 UNK         0.1003 
     66 C          33.9652   28.6721    2.5813 C.2       11 UNK         0.5709 
     67 N          33.6508   27.4930    2.0633 N.am      11 UNK        -0.7358 
     68 O          34.7077   29.4278    1.9581 O.2       11 UNK        -0.4999 
     69 C69        33.3226   27.9532    5.0211 C.3       12 UNK        -0.0954 
     70 S70        32.0096   26.7180    4.7575 S.3       12 UNK        -0.2268 
     71 C71        32.9831   25.1781    4.7506 C.3       12 UNK         0.0203 
     72 H72        30.7275   25.7100   -4.4752 H         1 UNK         0.0888 
     73 H73        30.8913   23.9554   -4.5802 H         1 UNK         0.0888 
     74 H74        29.3901   24.7338   -5.0883 H         1 UNK         0.0888 
     75 H75        30.7130   22.9835   -2.5865 H         1 UNK         0.3017 
     76 H76        30.1133   24.1582   -0.1972 H         1 UNK         0.0873 
     77 H77        29.8512   21.7338    0.6569 H         1 UNK         0.0745 
     78 H78        30.0391   21.2074   -0.9902 H         1 UNK         0.0745 
     79 H79        31.9147   20.3582    1.4916 H         1 UNK         0.0705 
     80 H80        33.4438   21.1840    1.6125 H         1 UNK         0.0705 
     81 H81        33.5310   23.5321    2.6333 H         1 UNK         0.1334 
     82 H82        30.6450   24.1986    5.7352 H         1 UNK         0.1417 
     83 H83        30.0665   21.0242    2.9143 H         1 UNK         0.1562 
     84 H84        29.0617   21.7085    5.9661 H         1 UNK         0.0748 
     85 H85        28.2972   21.5458    4.4031 H         1 UNK         0.0748 
     86 H86        26.5460   24.5577    3.5210 H         1 UNK         0.0940 
     87 H87        28.0050   23.7654    2.9985 H         1 UNK         0.0940 
     88 H88        29.3772   25.6608    3.8442 H         1 UNK         0.0703 
     89 H89        27.9615   25.6969    1.5266 H         1 UNK         0.3081 
     90 H90        28.7044   28.8805    0.1961 H         1 UNK         0.0719 
     91 H91        30.4601   26.4127   -0.2483 H         1 UNK         0.0809 
     92 H92        31.0418   27.9776    0.2814 H         1 UNK         0.0809 
     93 H93        30.3307   27.8077   -1.3151 H         1 UNK         0.0809 
     94 H94        28.1719   26.4830   -1.2014 H         1 UNK         0.2990 
     95 H95        24.6072   26.9019   -1.2332 H         1 UNK         0.0690 
     96 H96        25.1188   27.1128   -3.6540 H         1 UNK         0.0788 
     97 H97        26.8076   27.4658   -3.2926 H         1 UNK         0.0788 
     98 H98        25.5451   28.5884   -2.8017 H         1 UNK         0.0788 
     99 H99        26.8874   25.2003   -2.1673 H         1 UNK         0.2993 
    100 H100       25.5785   22.3828   -0.5175 H         1 UNK         0.0949 
    101 H101       25.6048   22.7673   -3.5632 H         1 UNK         0.0767 
    102 H102       25.6468   21.2218   -2.7119 H         1 UNK         0.0767 
    103 H103       24.2190   22.2383   -2.6189 H         1 UNK         0.0767 
    104 H104       27.7576   22.5408   -2.2975 H         1 UNK         0.3013 
    105 H105       29.6739   27.2491    5.1967 H         1 UNK         0.3121 
    106 H106       29.4932   28.8093    6.7260 H         1 UNK         0.0774 
    107 H107       27.6893   28.6982    8.4026 H         1 UNK         0.0815 
    108 H108       26.6851   27.7399    7.3256 H         1 UNK         0.0815 
    109 H109       28.1814   27.0695    7.9738 H         1 UNK         0.0815 
    110 H110       28.3912   29.3363    3.9282 H         1 UNK         0.2987 
    111 H111       26.8849   31.8714    4.5143 H         1 UNK         0.0949 
    112 H112       26.6601   30.0100    2.0956 H         1 UNK         0.0806 
    113 H113       25.4718   30.1441    3.3887 H         1 UNK         0.0806 
    114 H114       25.7752   31.5119    2.3262 H         1 UNK         0.0806 
    115 H115       29.4629   30.2971    2.5980 H         1 UNK         0.3010 
    116 H116       30.1568   32.7183    1.1320 H         1 UNK         0.0829 
    117 H117       30.6198   30.5361    0.1222 H         1 UNK         0.0813 
    118 H118       32.1625   31.2969    0.4692 H         1 UNK         0.0813 
    119 H119       31.5611   30.0220    1.5184 H         1 UNK         0.0813 
    120 H120       32.1168   33.9063    1.3773 H         1 UNK         0.3038 
    121 H121       32.7826   34.7192    4.0142 H         1 UNK         0.0769 
    122 H122       32.9513   36.2359    2.0704 H         1 UNK         0.0811 
    123 H123       34.2059   35.2297    1.3458 H         1 UNK         0.0811 
    124 H124       34.5206   36.0916    2.8447 H         1 UNK         0.0811 
    125 H125       33.7685   33.4430    5.4115 H         1 UNK         0.3204 
    126 H126       35.0954   32.0454    6.4718 H         1 UNK         0.0748 
    127 H127       37.0065   33.4513    5.6393 H         1 UNK         0.0771 
    128 H128       37.4601   31.7745    5.8885 H         1 UNK         0.0771 
    129 H129       37.1873   32.3683    4.2591 H         1 UNK         0.0771 
    130 H130       33.1435   31.1140    4.4370 H         1 UNK         0.2980 
    131 H131       32.2768   29.2971    3.7015 H         1 UNK         0.0545 
    132 H132       34.0465   27.2215    1.1776 H         1 UNK         0.3459 
    133 H133       33.0218   26.8764    2.5545 H         1 UNK         0.3459 
    134 H134       34.3021   27.4757    5.0805 H         1 UNK         0.0616 
    135 H135       33.1426   28.3804    6.0089 H         1 UNK         0.0616 
    136 H136       33.3257   24.9650    5.7640 H         1 UNK         0.0634 
    137 H137       33.8769   25.3175    4.1404 H         1 UNK         0.0634 
@<TRIPOS>BOND
     1    1    2 1    
     2    1   72 1    
     3    1   73 1    
     4    1   74 1    
     5    2    3 2    
     6    2    4 am   BACKBONE|DICT|INTERRES
     7    4    5 1    
     8    4   75 1    
     9    5    6 1    
    10    5   35 1    
    11    5   76 1    
    12    6    7 1    
    13    6   77 1    
    14    6   78 1    
    15    7    8 1    
    16    8    9 1    
    17    8   79 1    
    18    8   80 1    
    19    9   10 ar   
    20    9   14 ar   
    21   10   11 ar   
    22   10   81 1    
    23   11   12 ar   
    24   11   71 1    
    25   12   13 ar   
    26   12   82 1    
    27   13   14 ar   
    28   13   15 1    
    29   14   83 1    
    30   15   16 1    
    31   15   84 1    
    32   15   85 1    
    33   16   17 1    
    34   17   18 1    
    35   17   86 1    
    36   17   87 1    
    37   18   19 1    
    38   18   37 1    
    39   18   88 1    
    40   19   20 am   BACKBONE|DICT|INTERRES
    41   19   89 1    
    42   20   21 2    
    43   20   22 1    
    44   22   23 1    
    45   22   24 1    
    46   22   90 1    
    47   23   91 1    
    48   23   92 1    
    49   23   93 1    
    50   24   25 am   BACKBONE|DICT|INTERRES
    51   24   94 1    
    52   25   26 2    
    53   25   27 1    
    54   27   28 1    
    55   27   29 1    
    56   27   95 1    
    57   28   96 1    
    58   28   97 1    
    59   28   98 1    
    60   29   30 am   BACKBONE|DICT|INTERRES
    61   29   99 1    
    62   30   31 2    
    63   30   32 1    
    64   32   33 1    
    65   32   34 1    
    66   32  100 1    
    67   33  101 1    
    68   33  102 1    
    69   33  103 1    
    70   34   35 am   BACKBONE|DICT|INTERRES
    71   34  104 1    
    72   35   36 2    
    73   37   38 2    
    74   37   39 am   BACKBONE|DICT|INTERRES
    75   39   40 1    
    76   39  105 1    
    77   40   41 1    
    78   40   42 1    
    79   40  106 1    
    80   41  107 1    
    81   41  108 1    
    82   41  109 1    
    83   42   43 2    
    84   42   44 am   BACKBONE|DICT|INTERRES
    85   44   45 1    
    86   44  110 1    
    87   45   46 1    
    88   45   47 1    
    89   45  111 1    
    90   46  112 1    
    91   46  113 1    
    92   46  114 1    
    93   47   48 2    
    94   47   49 am   BACKBONE|DICT|INTERRES
    95   49   50 1    
    96   49  115 1    
    97   50   51 1    
    98   50   52 1    
    99   50  116 1    
   100   51  117 1    
   101   51  118 1    
   102   51  119 1    
   103   52   53 2    
   104   52   54 am   BACKBONE|DICT|INTERRES
   105   54   55 1    
   106   54  120 1    
   107   55   56 1    
   108   55   57 1    
   109   55  121 1    
   110   56  122 1    
   111   56  123 1    
   112   56  124 1    
   113   57   58 2    
   114   57   59 am   BACKBONE|DICT|INTERRES
   115   59   60 1    
   116   59  125 1    
   117   60   61 1    
   118   60   62 1    
   119   60  126 1    
   120   61  127 1    
   121   61  128 1    
   122   61  129 1    
   123   62   63 2    
   124   62   64 am   BACKBONE|DICT|INTERRES
   125   64   65 1    
   126   64  130 1    
   127   65   66 1    
   128   65   69 1    
   129   65  131 1    
   130   66   67 am   BACKBONE|DICT|INTERRES
   131   66   68 2    
   132   67  132 1    
   133   67  133 1    
   134   69   70 1    
   135   69  134 1    
   136   69  135 1    
   137   70   71 1    
   138   71  136 1    
   139   71  137 1    
@<TRIPOS>SUBSTRUCTURE
     1 UNK         1 GROUP             0       ****    0 ROOT    
