@<TRIPOS>MOLECULE
3R136
137   139    1
SMALL
USER_CHARGES


@<TRIPOS>ATOM
      1 CA         35.6451   24.4699    0.8408 C.3       0 UNK        -0.1979 
      2 C          34.3820   23.7653    0.3656 C.2       0 UNK         0.4864 
      3 O          34.4617   22.9425   -0.5474 O.2       0 UNK        -0.5359 
      4 N          33.2384   24.0852    0.9880 N.am      1 UNK        -0.4318 
      5 CA         31.8758   23.6426    0.6754 C.3       1 UNK         0.0824 
      6 C6         31.7382   22.1119    0.4434 C.3       12 UNK        -0.0944 
      7 S7         30.0502   21.4863    0.7427 S.3       12 UNK        -0.2672 
      8 C8         30.1946   20.8142    2.4298 C.3       12 UNK         0.0333 
      9 C9         30.3193   21.9271    3.4582 C.ar      12 UNK        -0.0807 
     10 C10        31.5629   22.2503    4.0102 C.ar      12 UNK        -0.0894 
     11 C11        31.6804   23.3045    4.9213 C.ar      12 UNK        -0.0804 
     12 C12        30.5421   24.0293    5.2853 C.ar      12 UNK        -0.0824 
     13 C13        29.2925   23.7094    4.7475 C.ar      12 UNK        -0.0762 
     14 C14        29.1864   22.6502    3.8416 C.ar      12 UNK        -0.0782 
     15 C15        28.0606   24.5154    5.1386 C.3       12 UNK         0.0230 
     16 S16        27.2897   25.3266    3.7020 S.3       12 UNK        -0.2608 
     17 C17        28.6307   26.4342    3.1377 C.3       12 UNK        -0.0989 
     18 CA         28.1788   27.9016    2.9520 C.3       5 UNK         0.0716 
     19 N          27.0707   28.0124    1.9873 N.am      5 UNK        -0.4135 
     20 C          26.5692   29.1515    1.4888 C.2       4 UNK         0.5031 
     21 O          26.9732   30.2646    1.8263 O.2       4 UNK        -0.5229 
     22 CA         25.4268   29.0337    0.4669 C.3       4 UNK         0.0329 
     23 CB         25.2108   30.3390   -0.3229 C.3       4 UNK        -0.2001 
     24 N          25.6910   27.9442   -0.4716 N.am      4 UNK        -0.4303 
     25 C          24.9017   26.8831   -0.6851 C.2       3 UNK         0.5044 
     26 O          23.8217   26.7036   -0.1215 O.2       3 UNK        -0.5152 
     27 CA         25.4051   25.8356   -1.6984 C.3       3 UNK         0.0319 
     28 CB         24.7341   26.0466   -3.0654 C.3       3 UNK        -0.2001 
     29 N          26.8632   25.8398   -1.8708 N.am      3 UNK        -0.4354 
     30 C          27.7338   25.4621   -0.9258 C.2       2 UNK         0.4964 
     31 O          27.4021   25.0325    0.1810 O.2       2 UNK        -0.5047 
     32 CA         29.2177   25.6520   -1.2504 C.3       2 UNK         0.0288 
     33 CB         29.6143   27.1376   -1.1272 C.3       2 UNK        -0.2113 
     34 N          29.9972   24.8449   -0.3183 N.am      2 UNK        -0.4145 
     35 C          31.2754   24.4850   -0.4682 C.2       1 UNK         0.5006 
     36 O          31.9559   24.7900   -1.4513 O.2       1 UNK        -0.5103 
     37 C          27.9523   28.6086    4.3110 C.2       5 UNK         0.5055 
     38 O          28.9120   28.7875    5.0608 O.2       5 UNK        -0.5220 
     39 N          26.7138   29.0272    4.6042 N.am      6 UNK        -0.4450 
     40 CA         26.3838   29.9082    5.7256 C.3       6 UNK         0.0367 
     41 CB         24.8603   29.9079    5.9312 C.3       6 UNK        -0.1929 
     42 C          26.9004   31.3508    5.5403 C.2       6 UNK         0.5070 
     43 O          27.0676   32.0504    6.5400 O.2       6 UNK        -0.5237 
     44 N          27.1257   31.7765    4.2882 N.am      7 UNK        -0.4739 
     45 CA         27.5828   33.1214    3.9275 C.3       7 UNK         0.0276 
     46 CB         26.4552   33.8452    3.1725 C.3       7 UNK        -0.1927 
     47 C          28.8655   33.1074    3.0797 C.2       7 UNK         0.5013 
     48 O          29.6692   34.0325    3.2081 O.2       7 UNK        -0.5193 
     49 N          29.0320   32.0962    2.2148 N.am      8 UNK        -0.4253 
     50 CA         30.1698   31.9506    1.3037 C.3       8 UNK         0.0242 
     51 CB         29.8743   30.8227    0.3001 C.3       8 UNK        -0.2000 
     52 C          31.4896   31.6736    2.0422 C.2       8 UNK         0.4948 
     53 O          31.4971   30.9640    3.0499 O.2       8 UNK        -0.5275 
     54 N          32.5922   32.1944    1.4855 N.am      9 UNK        -0.4246 
     55 CA         33.9528   32.0708    2.0241 C.3       9 UNK         0.0261 
     56 CB         34.8867   33.0182    1.2530 C.3       9 UNK        -0.1959 
     57 C          34.5190   30.6381    2.0172 C.2       9 UNK         0.5033 
     58 O          35.4714   30.3658    2.7508 O.2       9 UNK        -0.5390 
     59 N          33.9294   29.7425    1.2135 N.am      10 UNK        -0.4215 
     60 CA         34.2488   28.3155    1.1304 C.3       10 UNK         0.0240 
     61 CB         33.6864   27.7662   -0.1937 C.3       10 UNK        -0.1982 
     62 C          33.7281   27.5447    2.3612 C.2       10 UNK         0.4970 
     63 O          32.8408   26.7020    2.2241 O.2       10 UNK        -0.4916 
     64 N          34.2882   27.8774    3.5313 N.am      11 UNK        -0.4279 
     65 CA         33.9718   27.3781    4.8821 C.3       11 UNK         0.1003 
     66 C          32.4925   27.5280    5.3516 C.2       11 UNK         0.5709 
     67 N          31.6877   28.3764    4.7256 N.am      11 UNK        -0.7358 
     68 O          32.0853   26.9182    6.3368 O.2       11 UNK        -0.4999 
     69 C69        34.6417   26.0120    5.2263 C.3       12 UNK        -0.0954 
     70 S70        34.0512   24.5604    4.2905 S.3       12 UNK        -0.2268 
     71 C71        33.0371   23.6647    5.5069 C.3       12 UNK         0.0203 
     72 H72        36.0890   25.0366    0.0229 H         1 UNK         0.0888 
     73 H73        35.4473   25.1584    1.6612 H         1 UNK         0.0888 
     74 H74        36.3751   23.7381    1.1855 H         1 UNK         0.0888 
     75 H75        33.2630   24.8193    1.6910 H         1 UNK         0.3017 
     76 H76        31.3184   23.8937    1.5796 H         1 UNK         0.0873 
     77 H77        32.0296   21.8444   -0.5739 H         1 UNK         0.0745 
     78 H78        32.4250   21.5714    1.0962 H         1 UNK         0.0745 
     79 H79        31.0436   20.1310    2.4857 H         1 UNK         0.0705 
     80 H80        29.3084   20.2165    2.6481 H         1 UNK         0.0705 
     81 H81        32.4450   21.6981    3.7160 H         1 UNK         0.1334 
     82 H82        30.6298   24.8484    5.9851 H         1 UNK         0.1417 
     83 H83        28.2235   22.4078    3.4121 H         1 UNK         0.1562 
     84 H84        28.3065   25.2742    5.8836 H         1 UNK         0.0748 
     85 H85        27.3319   23.8501    5.6034 H         1 UNK         0.0748 
     86 H86        29.0073   26.0461    2.1913 H         1 UNK         0.0940 
     87 H87        29.4811   26.3830    3.8210 H         1 UNK         0.0940 
     88 H88        29.0212   28.4302    2.5025 H         1 UNK         0.0703 
     89 H89        26.6778   27.1329    1.6783 H         1 UNK         0.3081 
     90 H90        24.5204   28.8325    1.0412 H         1 UNK         0.0719 
     91 H91        24.9576   31.1647    0.3437 H         1 UNK         0.0809 
     92 H92        24.3925   30.2391   -1.0360 H         1 UNK         0.0809 
     93 H93        26.1050   30.6284   -0.8762 H         1 UNK         0.0809 
     94 H94        26.5630   27.9936   -0.9783 H         1 UNK         0.2990 
     95 H95        25.1126   24.8526   -1.3225 H         1 UNK         0.0690 
     96 H96        25.0178   25.2663   -3.7720 H         1 UNK         0.0788 
     97 H97        24.9995   27.0102   -3.5023 H         1 UNK         0.0788 
     98 H98        23.6471   26.0186   -2.9749 H         1 UNK         0.0788 
     99 H99        27.2142   26.1796   -2.7554 H         1 UNK         0.2993 
    100 H100       29.3988   25.2985   -2.2679 H         1 UNK         0.0949 
    101 H101       29.0000   27.7712   -1.7677 H         1 UNK         0.0767 
    102 H102       29.5057   27.4986   -0.1038 H         1 UNK         0.0767 
    103 H103       30.6489   27.2950   -1.4297 H         1 UNK         0.0767 
    104 H104       29.4597   24.4999    0.4690 H         1 UNK         0.3013 
    105 H105       25.9733   28.8210    3.9509 H         1 UNK         0.3121 
    106 H106       26.8514   29.5047    6.6264 H         1 UNK         0.0774 
    107 H107       24.5826   30.5307    6.7828 H         1 UNK         0.0815 
    108 H108       24.3343   30.2972    5.0585 H         1 UNK         0.0815 
    109 H109       24.4861   28.9037    6.1313 H         1 UNK         0.0815 
    110 H110       26.9755   31.1316    3.5177 H         1 UNK         0.2987 
    111 H111       27.8112   33.6974    4.8270 H         1 UNK         0.0949 
    112 H112       25.5643   33.9435    3.7929 H         1 UNK         0.0806 
    113 H113       26.7606   34.8515    2.8824 H         1 UNK         0.0806 
    114 H114       26.1730   33.3127    2.2630 H         1 UNK         0.0806 
    115 H115       28.3043   31.3891    2.1387 H         1 UNK         0.3010 
    116 H116       30.2673   32.8879    0.7515 H         1 UNK         0.0829 
    117 H117       28.9443   31.0039   -0.2394 H         1 UNK         0.0813 
    118 H118       30.6672   30.7381   -0.4439 H         1 UNK         0.0813 
    119 H119       29.7894   29.8562    0.7961 H         1 UNK         0.0813 
    120 H120       32.4933   32.7514    0.6482 H         1 UNK         0.3038 
    121 H121       33.9239   32.3948    3.0666 H         1 UNK         0.0769 
    122 H122       34.9416   32.7594    0.1947 H         1 UNK         0.0811 
    123 H123       35.9018   32.9761    1.6510 H         1 UNK         0.0811 
    124 H124       34.5554   34.0539    1.3304 H         1 UNK         0.0811 
    125 H125       33.1426   30.0575    0.6665 H         1 UNK         0.3204 
    126 H126       35.3346   28.2003    1.1062 H         1 UNK         0.0748 
    127 H127       33.9318   26.7119   -0.3204 H         1 UNK         0.0771 
    128 H128       32.6006   27.8527   -0.2348 H         1 UNK         0.0771 
    129 H129       34.0986   28.2962   -1.0525 H         1 UNK         0.0771 
    130 H130       34.9540   28.6442    3.5029 H         1 UNK         0.2980 
    131 H131       34.4809   28.0990    5.5225 H         1 UNK         0.0545 
    132 H132       32.0135   28.9476    3.9600 H         1 UNK         0.3459 
    133 H133       30.7272   28.4845    5.0393 H         1 UNK         0.3459 
    134 H134       35.7128   26.0913    5.0359 H         1 UNK         0.0616 
    135 H135       34.5648   25.8132    6.2961 H         1 UNK         0.0616 
    136 H136       32.9086   24.2574    6.4131 H         1 UNK         0.0634 
    137 H137       33.5626   22.7574    5.8075 H         1 UNK         0.0634 
@<TRIPOS>BOND
     1    1    2 1    
     2    1   72 1    
     3    1   73 1    
     4    1   74 1    
     5    2    3 2    
     6    2    4 am   BACKBONE|DICT|INTERRES
     7    4    5 1    
     8    4   75 1    
     9    5    6 1    
    10    5   35 1    
    11    5   76 1    
    12    6    7 1    
    13    6   77 1    
    14    6   78 1    
    15    7    8 1    
    16    8    9 1    
    17    8   79 1    
    18    8   80 1    
    19    9   10 ar   
    20    9   14 ar   
    21   10   11 ar   
    22   10   81 1    
    23   11   12 ar   
    24   11   71 1    
    25   12   13 ar   
    26   12   82 1    
    27   13   14 ar   
    28   13   15 1    
    29   14   83 1    
    30   15   16 1    
    31   15   84 1    
    32   15   85 1    
    33   16   17 1    
    34   17   18 1    
    35   17   86 1    
    36   17   87 1    
    37   18   19 1    
    38   18   37 1    
    39   18   88 1    
    40   19   20 am   BACKBONE|DICT|INTERRES
    41   19   89 1    
    42   20   21 2    
    43   20   22 1    
    44   22   23 1    
    45   22   24 1    
    46   22   90 1    
    47   23   91 1    
    48   23   92 1    
    49   23   93 1    
    50   24   25 am   BACKBONE|DICT|INTERRES
    51   24   94 1    
    52   25   26 2    
    53   25   27 1    
    54   27   28 1    
    55   27   29 1    
    56   27   95 1    
    57   28   96 1    
    58   28   97 1    
    59   28   98 1    
    60   29   30 am   BACKBONE|DICT|INTERRES
    61   29   99 1    
    62   30   31 2    
    63   30   32 1    
    64   32   33 1    
    65   32   34 1    
    66   32  100 1    
    67   33  101 1    
    68   33  102 1    
    69   33  103 1    
    70   34   35 am   BACKBONE|DICT|INTERRES
    71   34  104 1    
    72   35   36 2    
    73   37   38 2    
    74   37   39 am   BACKBONE|DICT|INTERRES
    75   39   40 1    
    76   39  105 1    
    77   40   41 1    
    78   40   42 1    
    79   40  106 1    
    80   41  107 1    
    81   41  108 1    
    82   41  109 1    
    83   42   43 2    
    84   42   44 am   BACKBONE|DICT|INTERRES
    85   44   45 1    
    86   44  110 1    
    87   45   46 1    
    88   45   47 1    
    89   45  111 1    
    90   46  112 1    
    91   46  113 1    
    92   46  114 1    
    93   47   48 2    
    94   47   49 am   BACKBONE|DICT|INTERRES
    95   49   50 1    
    96   49  115 1    
    97   50   51 1    
    98   50   52 1    
    99   50  116 1    
   100   51  117 1    
   101   51  118 1    
   102   51  119 1    
   103   52   53 2    
   104   52   54 am   BACKBONE|DICT|INTERRES
   105   54   55 1    
   106   54  120 1    
   107   55   56 1    
   108   55   57 1    
   109   55  121 1    
   110   56  122 1    
   111   56  123 1    
   112   56  124 1    
   113   57   58 2    
   114   57   59 am   BACKBONE|DICT|INTERRES
   115   59   60 1    
   116   59  125 1    
   117   60   61 1    
   118   60   62 1    
   119   60  126 1    
   120   61  127 1    
   121   61  128 1    
   122   61  129 1    
   123   62   63 2    
   124   62   64 am   BACKBONE|DICT|INTERRES
   125   64   65 1    
   126   64  130 1    
   127   65   66 1    
   128   65   69 1    
   129   65  131 1    
   130   66   67 am   BACKBONE|DICT|INTERRES
   131   66   68 2    
   132   67  132 1    
   133   67  133 1    
   134   69   70 1    
   135   69  134 1    
   136   69  135 1    
   137   70   71 1    
   138   71  136 1    
   139   71  137 1    
@<TRIPOS>SUBSTRUCTURE
     1 UNK         1 GROUP             0       ****    0 ROOT    
