@<TRIPOS>MOLECULE
3R136
137   139    1
SMALL
USER_CHARGES


@<TRIPOS>ATOM
      1 CA         27.6103   19.7802    3.2409 C.3       0 UNK        -0.1979 
      2 C          27.4871   20.7665    2.0890 C.2       0 UNK         0.4864 
      3 O          26.4362   20.8299    1.4501 O.2       0 UNK        -0.5359 
      4 N          28.5557   21.5281    1.8187 N.am      1 UNK        -0.4318 
      5 CA         28.6224   22.5746    0.7915 C.3       1 UNK         0.0824 
      6 C6         30.0791   23.0277    0.5137 C.3       12 UNK        -0.0944 
      7 S7         31.0764   23.3509    2.0172 S.3       12 UNK        -0.2672 
      8 C8         32.7776   23.4118    1.3572 C.3       12 UNK         0.0333 
      9 C9         33.2369   24.8329    1.0467 C.ar      12 UNK        -0.0807 
     10 C10        34.3269   25.3939    1.7212 C.ar      12 UNK        -0.0894 
     11 C11        34.7711   26.6812    1.4017 C.ar      12 UNK        -0.0804 
     12 C12        34.0877   27.4249    0.4347 C.ar      12 UNK        -0.0824 
     13 C13        32.9926   26.8844   -0.2461 C.ar      12 UNK        -0.0762 
     14 C14        32.5952   25.5764    0.0540 C.ar      12 UNK        -0.0782 
     15 C15        32.2776   27.7490   -1.2877 C.3       12 UNK         0.0230 
     16 S16        31.1546   26.8685   -2.4277 S.3       12 UNK        -0.2608 
     17 C17        29.6520   26.6866   -1.4056 C.3       12 UNK        -0.0989 
     18 CA         28.5262   27.6531   -1.8472 C.3       5 UNK         0.0716 
     19 N          27.1995   27.0756   -1.6097 N.am      5 UNK        -0.4135 
     20 C          26.1338   27.2805   -2.3977 C.2       4 UNK         0.5031 
     21 O          26.1736   27.8895   -3.4676 O.2       4 UNK        -0.5229 
     22 CA         24.7832   26.7381   -1.8974 C.3       4 UNK         0.0329 
     23 CB         24.5899   25.2720   -2.3161 C.3       4 UNK        -0.2001 
     24 N          24.6358   26.8659   -0.4458 N.am      4 UNK        -0.4303 
     25 C          24.5105   28.0377    0.1956 C.2       3 UNK         0.5044 
     26 O          24.4061   29.1212   -0.3792 O.2       3 UNK        -0.5152 
     27 CA         24.5213   28.0175    1.7352 C.3       3 UNK         0.0319 
     28 CB         23.0952   28.1937    2.2813 C.3       3 UNK        -0.2001 
     29 N          25.1169   26.8213    2.3389 N.am      3 UNK        -0.4354 
     30 C          26.3816   26.4000    2.1951 C.2       2 UNK         0.4964 
     31 O          27.2046   26.9631    1.4684 O.2       2 UNK        -0.5047 
     32 CA         26.7873   25.1505    3.0109 C.3       2 UNK         0.0288 
     33 CB         25.5806   24.3201    3.5067 C.3       2 UNK        -0.2113 
     34 N          27.7351   24.2480    2.3450 N.am      2 UNK        -0.4145 
     35 C          27.6749   23.7560    1.0976 C.2       1 UNK         0.5006 
     36 O          26.8914   24.1446    0.2286 O.2       1 UNK        -0.5103 
     37 C          28.6545   29.0410   -1.1812 C.2       5 UNK         0.5055 
     38 O          29.3874   29.8915   -1.6881 O.2       5 UNK        -0.5220 
     39 N          27.9397   29.2487   -0.0641 N.am      6 UNK        -0.4450 
     40 CA         27.7883   30.4768    0.7280 C.3       6 UNK         0.0367 
     41 CB         27.2766   31.6595   -0.1163 C.3       6 UNK        -0.1929 
     42 C          29.0375   30.8505    1.5375 C.2       6 UNK         0.5070 
     43 O          28.9306   31.0340    2.7503 O.2       6 UNK        -0.5237 
     44 N          30.2100   30.8934    0.8876 N.am      7 UNK        -0.4739 
     45 CA         31.5112   31.1427    1.5280 C.3       7 UNK         0.0276 
     46 CB         32.6005   31.3303    0.4611 C.3       7 UNK        -0.1927 
     47 C          31.9118   30.0589    2.5468 C.2       7 UNK         0.5013 
     48 O          32.7048   30.3362    3.4464 O.2       7 UNK        -0.5193 
     49 N          31.2837   28.8783    2.4460 N.am      8 UNK        -0.4253 
     50 CA         31.3343   27.7791    3.4111 C.3       8 UNK         0.0242 
     51 CB         30.3636   26.6814    2.9606 C.3       8 UNK        -0.2000 
     52 C          30.9989   28.1948    4.8557 C.2       8 UNK         0.4948 
     53 O          31.5388   27.6021    5.7891 O.2       8 UNK        -0.5275 
     54 N          30.1489   29.2217    5.0194 N.am      9 UNK        -0.4246 
     55 CA         29.8116   29.8206    6.3125 C.3       9 UNK         0.0261 
     56 CB         28.6306   30.7874    6.1325 C.3       9 UNK        -0.1959 
     57 C          30.9979   30.5364    6.9863 C.2       9 UNK         0.5033 
     58 O          31.0230   30.6126    8.2156 O.2       9 UNK        -0.5390 
     59 N          31.9553   31.0362    6.1904 N.am      10 UNK        -0.4215 
     60 CA         33.2133   31.6021    6.6787 C.3       10 UNK         0.0240 
     61 CB         33.7186   32.6776    5.7023 C.3       10 UNK        -0.1982 
     62 C          34.2704   30.5055    6.8811 C.2       10 UNK         0.4970 
     63 O          35.0292   30.5800    7.8484 O.2       10 UNK        -0.4916 
     64 N          34.3023   29.5154    5.9773 N.am      11 UNK        -0.4279 
     65 CA         35.2047   28.3541    6.0428 C.3       11 UNK         0.1003 
     66 C          34.9433   27.4268    7.2614 C.2       11 UNK         0.5709 
     67 N          33.6930   27.1554    7.6136 N.am      11 UNK        -0.7358 
     68 O          35.8851   26.9543    7.8937 O.2       11 UNK        -0.4999 
     69 C69        35.2016   27.5327    4.7287 C.3       12 UNK        -0.0954 
     70 S70        35.6443   28.5405    3.2773 S.3       12 UNK        -0.2268 
     71 C71        36.0234   27.2545    2.0510 C.3       12 UNK         0.0203 
     72 H72        28.5929   19.8220    3.7107 H         1 UNK         0.0888 
     73 H73        26.8614   19.9978    4.0020 H         1 UNK         0.0888 
     74 H74        27.4485   18.7636    2.8836 H         1 UNK         0.0888 
     75 H75        29.3940   21.4258    2.3743 H         1 UNK         0.3017 
     76 H76        28.2490   22.1280   -0.1330 H         1 UNK         0.0873 
     77 H77        30.5833   22.2466   -0.0574 H         1 UNK         0.0745 
     78 H78        30.0771   23.9057   -0.1285 H         1 UNK         0.0745 
     79 H79        32.8579   22.7972    0.4597 H         1 UNK         0.0705 
     80 H80        33.4402   22.9558    2.0942 H         1 UNK         0.0705 
     81 H81        34.8492   24.8188    2.4736 H         1 UNK         0.1334 
     82 H82        34.4245   28.4261    0.2019 H         1 UNK         0.1417 
     83 H83        31.7797   25.1242   -0.4816 H         1 UNK         0.1562 
     84 H84        33.0249   28.2640   -1.8934 H         1 UNK         0.0748 
     85 H85        31.7096   28.5224   -0.7725 H         1 UNK         0.0748 
     86 H86        29.8795   26.7825   -0.3423 H         1 UNK         0.0940 
     87 H87        29.3212   25.6560   -1.5422 H         1 UNK         0.0940 
     88 H88        28.6290   27.8145   -2.9227 H         1 UNK         0.0703 
     89 H89        27.0729   26.5646   -0.7437 H         1 UNK         0.3081 
     90 H90        23.9947   27.3291   -2.3687 H         1 UNK         0.0719 
     91 H91        25.3467   24.6202   -1.8794 H         1 UNK         0.0809 
     92 H92        23.6110   24.8987   -2.0150 H         1 UNK         0.0809 
     93 H93        24.6567   25.1659   -3.3998 H         1 UNK         0.0809 
     94 H94        24.7250   26.0214    0.1017 H         1 UNK         0.2990 
     95 H95        25.1155   28.8730    2.0610 H         1 UNK         0.0690 
     96 H96        22.4545   27.3517    2.0161 H         1 UNK         0.0788 
     97 H97        22.6306   29.0955    1.8794 H         1 UNK         0.0788 
     98 H98        23.0936   28.2898    3.3673 H         1 UNK         0.0788 
     99 H99        24.5136   26.2846    2.9456 H         1 UNK         0.2993 
    100 H100       27.3081   25.5346    3.8893 H         1 UNK         0.0949 
    101 H101       24.9696   23.9605    2.6771 H         1 UNK         0.0767 
    102 H102       25.9123   23.4457    4.0675 H         1 UNK         0.0767 
    103 H103       24.9395   24.8920    4.1786 H         1 UNK         0.0767 
    104 H104       28.4691   23.8832    2.9354 H         1 UNK         0.3013 
    105 H105       27.4802   28.4370    0.3421 H         1 UNK         0.3121 
    106 H106       27.0099   30.2496    1.4576 H         1 UNK         0.0774 
    107 H107       27.0622   32.5218    0.5162 H         1 UNK         0.0815 
    108 H108       28.0038   31.9807   -0.8623 H         1 UNK         0.0815 
    109 H109       26.3537   31.4013   -0.6360 H         1 UNK         0.0815 
    110 H110       30.1971   30.7108   -0.1128 H         1 UNK         0.2987 
    111 H111       31.4251   32.0777    2.0861 H         1 UNK         0.0949 
    112 H112       32.7438   30.4371   -0.1434 H         1 UNK         0.0806 
    113 H113       32.3598   32.1548   -0.2101 H         1 UNK         0.0806 
    114 H114       33.5604   31.5623    0.9253 H         1 UNK         0.0806 
    115 H115       30.6393   28.7690    1.6785 H         1 UNK         0.3010 
    116 H116       32.3469   27.3769    3.3913 H         1 UNK         0.0829 
    117 H117       30.4147   25.8211    3.6288 H         1 UNK         0.0813 
    118 H118       29.3338   27.0355    2.9640 H         1 UNK         0.0813 
    119 H119       30.5950   26.3274    1.9575 H         1 UNK         0.0813 
    120 H120       29.7550   29.6695    4.1986 H         1 UNK         0.3038 
    121 H121       29.4949   29.0151    6.9786 H         1 UNK         0.0769 
    122 H122       28.3241   31.2117    7.0896 H         1 UNK         0.0811 
    123 H123       27.7627   30.2812    5.7094 H         1 UNK         0.0811 
    124 H124       28.8869   31.6186    5.4742 H         1 UNK         0.0811 
    125 H125       31.8909   30.8893    5.1882 H         1 UNK         0.3204 
    126 H126       33.0414   32.0848    7.6433 H         1 UNK         0.0748 
    127 H127       34.6241   33.1513    6.0837 H         1 UNK         0.0771 
    128 H128       33.9592   32.2628    4.7231 H         1 UNK         0.0771 
    129 H129       32.9769   33.4638    5.5603 H         1 UNK         0.0771 
    130 H130       33.6891   29.5612    5.1728 H         1 UNK         0.2980 
    131 H131       36.2134   28.7524    6.1694 H         1 UNK         0.0545 
    132 H132       32.9155   27.4662    7.0354 H         1 UNK         0.3459 
    133 H133       33.5214   26.5591    8.4065 H         1 UNK         0.3459 
    134 H134       35.9163   26.7109    4.8020 H         1 UNK         0.0616 
    135 H135       34.2273   27.0750    4.5601 H         1 UNK         0.0616 
    136 H136       36.6217   26.4672    2.5119 H         1 UNK         0.0634 
    137 H137       36.6530   27.6941    1.2761 H         1 UNK         0.0634 
@<TRIPOS>BOND
     1    1    2 1    
     2    1   72 1    
     3    1   73 1    
     4    1   74 1    
     5    2    3 2    
     6    2    4 am   BACKBONE|DICT|INTERRES
     7    4    5 1    
     8    4   75 1    
     9    5    6 1    
    10    5   35 1    
    11    5   76 1    
    12    6    7 1    
    13    6   77 1    
    14    6   78 1    
    15    7    8 1    
    16    8    9 1    
    17    8   79 1    
    18    8   80 1    
    19    9   10 ar   
    20    9   14 ar   
    21   10   11 ar   
    22   10   81 1    
    23   11   12 ar   
    24   11   71 1    
    25   12   13 ar   
    26   12   82 1    
    27   13   14 ar   
    28   13   15 1    
    29   14   83 1    
    30   15   16 1    
    31   15   84 1    
    32   15   85 1    
    33   16   17 1    
    34   17   18 1    
    35   17   86 1    
    36   17   87 1    
    37   18   19 1    
    38   18   37 1    
    39   18   88 1    
    40   19   20 am   BACKBONE|DICT|INTERRES
    41   19   89 1    
    42   20   21 2    
    43   20   22 1    
    44   22   23 1    
    45   22   24 1    
    46   22   90 1    
    47   23   91 1    
    48   23   92 1    
    49   23   93 1    
    50   24   25 am   BACKBONE|DICT|INTERRES
    51   24   94 1    
    52   25   26 2    
    53   25   27 1    
    54   27   28 1    
    55   27   29 1    
    56   27   95 1    
    57   28   96 1    
    58   28   97 1    
    59   28   98 1    
    60   29   30 am   BACKBONE|DICT|INTERRES
    61   29   99 1    
    62   30   31 2    
    63   30   32 1    
    64   32   33 1    
    65   32   34 1    
    66   32  100 1    
    67   33  101 1    
    68   33  102 1    
    69   33  103 1    
    70   34   35 am   BACKBONE|DICT|INTERRES
    71   34  104 1    
    72   35   36 2    
    73   37   38 2    
    74   37   39 am   BACKBONE|DICT|INTERRES
    75   39   40 1    
    76   39  105 1    
    77   40   41 1    
    78   40   42 1    
    79   40  106 1    
    80   41  107 1    
    81   41  108 1    
    82   41  109 1    
    83   42   43 2    
    84   42   44 am   BACKBONE|DICT|INTERRES
    85   44   45 1    
    86   44  110 1    
    87   45   46 1    
    88   45   47 1    
    89   45  111 1    
    90   46  112 1    
    91   46  113 1    
    92   46  114 1    
    93   47   48 2    
    94   47   49 am   BACKBONE|DICT|INTERRES
    95   49   50 1    
    96   49  115 1    
    97   50   51 1    
    98   50   52 1    
    99   50  116 1    
   100   51  117 1    
   101   51  118 1    
   102   51  119 1    
   103   52   53 2    
   104   52   54 am   BACKBONE|DICT|INTERRES
   105   54   55 1    
   106   54  120 1    
   107   55   56 1    
   108   55   57 1    
   109   55  121 1    
   110   56  122 1    
   111   56  123 1    
   112   56  124 1    
   113   57   58 2    
   114   57   59 am   BACKBONE|DICT|INTERRES
   115   59   60 1    
   116   59  125 1    
   117   60   61 1    
   118   60   62 1    
   119   60  126 1    
   120   61  127 1    
   121   61  128 1    
   122   61  129 1    
   123   62   63 2    
   124   62   64 am   BACKBONE|DICT|INTERRES
   125   64   65 1    
   126   64  130 1    
   127   65   66 1    
   128   65   69 1    
   129   65  131 1    
   130   66   67 am   BACKBONE|DICT|INTERRES
   131   66   68 2    
   132   67  132 1    
   133   67  133 1    
   134   69   70 1    
   135   69  134 1    
   136   69  135 1    
   137   70   71 1    
   138   71  136 1    
   139   71  137 1    
@<TRIPOS>SUBSTRUCTURE
     1 UNK         1 GROUP             0       ****    0 ROOT    
