@<TRIPOS>MOLECULE
3R136
137   139    1
SMALL
USER_CHARGES


@<TRIPOS>ATOM
      1 CA         33.9869   22.7713   -2.0819 C.3       0 UNK        -0.1979 
      2 C          32.9968   23.8482   -1.6634 C.2       0 UNK         0.4864 
      3 O          33.0548   24.9649   -2.1782 O.2       0 UNK        -0.5359 
      4 N          32.0858   23.5190   -0.7370 N.am      1 UNK        -0.4318 
      5 CA         31.0777   24.4360   -0.1844 C.3       1 UNK         0.0824 
      6 C6         30.4924   23.9162    1.1532 C.3       12 UNK        -0.0944 
      7 S7         31.7920   23.7127    2.4127 S.3       12 UNK        -0.2672 
      8 C8         30.8715   22.9218    3.7673 C.3       12 UNK         0.0333 
      9 C9         30.1269   23.9217    4.6439 C.ar      12 UNK        -0.0807 
     10 C10        30.8385   24.8832    5.3691 C.ar      12 UNK        -0.0894 
     11 C11        30.1788   25.7344    6.2600 C.ar      12 UNK        -0.0804 
     12 C12        28.7968   25.6174    6.4260 C.ar      12 UNK        -0.0824 
     13 C13        28.0666   24.6777    5.6890 C.ar      12 UNK        -0.0762 
     14 C14        28.7384   23.8365    4.7947 C.ar      12 UNK        -0.0782 
     15 C15        26.5654   24.5191    5.9081 C.3       12 UNK         0.0230 
     16 S16        25.6635   26.1028    5.8724 S.3       12 UNK        -0.2608 
     17 C17        25.5765   26.4622    4.0852 C.3       12 UNK        -0.0989 
     18 CA         26.7497   27.3185    3.5291 C.3       5 UNK         0.0716 
     19 N          26.7661   27.3363    2.0601 N.am      5 UNK        -0.4135 
     20 C          25.7917   27.7389    1.2273 C.2       4 UNK         0.5031 
     21 O          24.6909   28.1676    1.5759 O.2       4 UNK        -0.5229 
     22 CA         26.0828   27.5713   -0.2715 C.3       4 UNK         0.0329 
     23 CB         27.2765   28.4319   -0.7234 C.3       4 UNK        -0.2001 
     24 N          26.3124   26.1649   -0.6113 N.am      4 UNK        -0.4303 
     25 C          25.3485   25.2285   -0.6496 C.2       3 UNK         0.5044 
     26 O          24.1614   25.4720   -0.4259 O.2       3 UNK        -0.5152 
     27 CA         25.7635   23.7760   -0.9799 C.3       3 UNK         0.0319 
     28 CB         24.6500   22.9886   -1.7041 C.3       3 UNK        -0.2001 
     29 N          27.0350   23.6673   -1.7041 N.am      3 UNK        -0.4354 
     30 C          27.3401   24.1825   -2.9059 C.2       2 UNK         0.4964 
     31 O          26.5217   24.7332   -3.6438 O.2       2 UNK        -0.5047 
     32 CA         28.8199   24.0930   -3.3394 C.3       2 UNK         0.0288 
     33 CB         29.2328   25.2817   -4.2338 C.3       2 UNK        -0.2113 
     34 N          29.7771   23.9481   -2.2289 N.am      2 UNK        -0.4145 
     35 C          29.9441   24.7688   -1.1763 C.2       1 UNK         0.5006 
     36 O          29.2226   25.7411   -0.9471 O.2       1 UNK        -0.5103 
     37 C          26.8067   28.7355    4.1522 C.2       5 UNK         0.5055 
     38 O          26.1850   29.6731    3.6493 O.2       5 UNK        -0.5220 
     39 N          27.5371   28.8458    5.2731 N.am      6 UNK        -0.4450 
     40 CA         27.6389   30.0153    6.1583 C.3       6 UNK         0.0367 
     41 CB         26.3052   30.2378    6.9032 C.3       6 UNK        -0.1929 
     42 C          28.1525   31.2892    5.4563 C.2       6 UNK         0.5070 
     43 O          27.6507   32.3852    5.7149 O.2       6 UNK        -0.5237 
     44 N          29.1514   31.1230    4.5848 N.am      7 UNK        -0.4739 
     45 CA         29.8209   32.1912    3.8510 C.3       7 UNK         0.0276 
     46 CB         29.1734   32.3478    2.4646 C.3       7 UNK        -0.1927 
     47 C          31.2951   31.8120    3.7194 C.2       7 UNK         0.5013 
     48 O          31.5944   30.6268    3.5565 O.2       7 UNK        -0.5193 
     49 N          32.1871   32.8112    3.7480 N.am      8 UNK        -0.4253 
     50 CA         33.6469   32.6421    3.7078 C.3       8 UNK         0.0242 
     51 CB         34.3239   34.0165    3.8314 C.3       8 UNK        -0.2000 
     52 C          34.1757   31.8928    2.4713 C.2       8 UNK         0.4948 
     53 O          35.1939   31.2094    2.5745 O.2       8 UNK        -0.5275 
     54 N          33.4565   31.9914    1.3441 N.am      9 UNK        -0.4246 
     55 CA         33.7227   31.2413    0.1133 C.3       9 UNK         0.0261 
     56 CB         32.8071   31.7661   -1.0049 C.3       9 UNK        -0.1959 
     57 C          33.5594   29.7161    0.2694 C.2       9 UNK         0.5033 
     58 O          34.2122   28.9703   -0.4618 O.2       9 UNK        -0.5390 
     59 N          32.7061   29.2857    1.2083 N.am      10 UNK        -0.4215 
     60 CA         32.4970   27.8864    1.5708 C.3       10 UNK         0.0240 
     61 CB         30.9936   27.6395    1.8029 C.3       10 UNK        -0.1982 
     62 C          33.3047   27.5284    2.8251 C.2       10 UNK         0.4970 
     63 O          34.0412   26.5423    2.8159 O.2       10 UNK        -0.4916 
     64 N          33.1330   28.3281    3.8828 N.am      11 UNK        -0.4279 
     65 CA         33.6548   28.0645    5.2291 C.3       11 UNK         0.1003 
     66 C          35.1666   28.3669    5.4228 C.2       11 UNK         0.5709 
     67 N          35.8271   29.1055    4.5401 N.am      11 UNK        -0.7358 
     68 O          35.7586   27.9080    6.3968 O.2       11 UNK        -0.4999 
     69 C69        32.7962   28.7657    6.3151 C.3       12 UNK        -0.0954 
     70 S70        31.0222   28.3525    6.1898 S.3       12 UNK        -0.2268 
     71 C71        30.9620   26.7599    7.0635 C.3       12 UNK         0.0203 
     72 H72        33.8992   22.5752   -3.1502 H         1 UNK         0.0888 
     73 H73        35.0057   23.0999   -1.8780 H         1 UNK         0.0888 
     74 H74        33.8206   21.8347   -1.5499 H         1 UNK         0.0888 
     75 H75        32.1052   22.5954   -0.3275 H         1 UNK         0.3017 
     76 H76        31.5801   25.3828    0.0180 H         1 UNK         0.0873 
     77 H77        29.9873   22.9597    1.0064 H         1 UNK         0.0745 
     78 H78        29.7429   24.6040    1.5500 H         1 UNK         0.0745 
     79 H79        30.1943   22.1700    3.3591 H         1 UNK         0.0705 
     80 H80        31.5816   22.3794    4.3929 H         1 UNK         0.0705 
     81 H81        31.9116   24.9538    5.2525 H         1 UNK         0.1334 
     82 H82        28.2891   26.2529    7.1390 H         1 UNK         0.1417 
     83 H83        28.1854   23.0864    4.2456 H         1 UNK         0.1562 
     84 H84        26.4108   24.0576    6.8843 H         1 UNK         0.0748 
     85 H85        26.1279   23.8377    5.1769 H         1 UNK         0.0748 
     86 H86        24.6236   26.9614    3.9012 H         1 UNK         0.0940 
     87 H87        25.5188   25.5163    3.5444 H         1 UNK         0.0940 
     88 H88        27.6798   26.8156    3.7988 H         1 UNK         0.0703 
     89 H89        27.6221   27.0078    1.6386 H         1 UNK         0.3081 
     90 H90        25.2041   27.9140   -0.8226 H         1 UNK         0.0719 
     91 H91        27.1063   29.4843   -0.4925 H         1 UNK         0.0809 
     92 H92        28.2071   28.1390   -0.2378 H         1 UNK         0.0809 
     93 H93        27.4294   28.3568   -1.8002 H         1 UNK         0.0809 
     94 H94        27.2724   25.8963   -0.8087 H         1 UNK         0.2990 
     95 H95        25.9285   23.2931   -0.0157 H         1 UNK         0.0690 
     96 H96        24.9608   21.9657   -1.9167 H         1 UNK         0.0788 
     97 H97        24.3701   23.4576   -2.6478 H         1 UNK         0.0788 
     98 H98        23.7490   22.9298   -1.0923 H         1 UNK         0.0788 
     99 H99        27.7865   23.2290   -1.1913 H         1 UNK         0.2993 
    100 H100       28.9006   23.1837   -3.9370 H         1 UNK         0.0949 
    101 H101       29.1117   26.2346   -3.7169 H         1 UNK         0.0767 
    102 H102       30.2744   25.2004   -4.5451 H         1 UNK         0.0767 
    103 H103       28.6283   25.3233   -5.1408 H         1 UNK         0.0767 
    104 H104       30.4081   23.1620   -2.3006 H         1 UNK         0.3013 
    105 H105       28.0327   28.0249    5.5918 H         1 UNK         0.3121 
    106 H106       28.3900   29.7657    6.9090 H         1 UNK         0.0774 
    107 H107       26.4024   31.0196    7.6574 H         1 UNK         0.0815 
    108 H108       25.5087   30.5392    6.2221 H         1 UNK         0.0815 
    109 H109       25.9820   29.3322    7.4167 H         1 UNK         0.0815 
    110 H110       29.5656   30.2062    4.4695 H         1 UNK         0.2987 
    111 H111       29.7452   33.1308    4.4031 H         1 UNK         0.0949 
    112 H112       28.1168   32.6028    2.5499 H         1 UNK         0.0806 
    113 H113       29.6539   33.1424    1.8926 H         1 UNK         0.0806 
    114 H114       29.2468   31.4297    1.8795 H         1 UNK         0.0806 
    115 H115       31.8501   33.7568    3.8621 H         1 UNK         0.3010 
    116 H116       33.9246   32.0464    4.5803 H         1 UNK         0.0829 
    117 H117       34.0545   34.6758    3.0053 H         1 UNK         0.0813 
    118 H118       35.4106   33.9179    3.8285 H         1 UNK         0.0813 
    119 H119       34.0497   34.5130    4.7624 H         1 UNK         0.0813 
    120 H120       32.6408   32.5859    1.3501 H         1 UNK         0.3038 
    121 H121       34.7593   31.4308   -0.1737 H         1 UNK         0.0769 
    122 H122       32.9710   32.8282   -1.1880 H         1 UNK         0.0811 
    123 H123       31.7526   31.6235   -0.7647 H         1 UNK         0.0811 
    124 H124       33.0003   31.2443   -1.9434 H         1 UNK         0.0811 
    125 H125       32.2560   29.9708    1.8066 H         1 UNK         0.3204 
    126 H126       32.8306   27.2324    0.7627 H         1 UNK         0.0748 
    127 H127       30.8184   26.6411    2.2028 H         1 UNK         0.0771 
    128 H128       30.5649   28.3460    2.5143 H         1 UNK         0.0771 
    129 H129       30.4347   27.7225    0.8709 H         1 UNK         0.0771 
    130 H130       32.5166   29.1342    3.8033 H         1 UNK         0.2980 
    131 H131       33.5570   26.9904    5.3971 H         1 UNK         0.0545 
    132 H132       35.3611   29.5429    3.7546 H         1 UNK         0.3459 
    133 H133       36.8081   29.2777    4.6886 H         1 UNK         0.3459 
    134 H134       32.8910   29.8494    6.2249 H         1 UNK         0.0616 
    135 H135       33.1460   28.5116    7.3175 H         1 UNK         0.0616 
    136 H136       31.9698   26.3875    7.2521 H         1 UNK         0.0634 
    137 H137       30.5042   26.9080    8.0426 H         1 UNK         0.0634 
@<TRIPOS>BOND
     1    1    2 1    
     2    1   72 1    
     3    1   73 1    
     4    1   74 1    
     5    2    3 2    
     6    2    4 am   BACKBONE|DICT|INTERRES
     7    4    5 1    
     8    4   75 1    
     9    5    6 1    
    10    5   35 1    
    11    5   76 1    
    12    6    7 1    
    13    6   77 1    
    14    6   78 1    
    15    7    8 1    
    16    8    9 1    
    17    8   79 1    
    18    8   80 1    
    19    9   10 ar   
    20    9   14 ar   
    21   10   11 ar   
    22   10   81 1    
    23   11   12 ar   
    24   11   71 1    
    25   12   13 ar   
    26   12   82 1    
    27   13   14 ar   
    28   13   15 1    
    29   14   83 1    
    30   15   16 1    
    31   15   84 1    
    32   15   85 1    
    33   16   17 1    
    34   17   18 1    
    35   17   86 1    
    36   17   87 1    
    37   18   19 1    
    38   18   37 1    
    39   18   88 1    
    40   19   20 am   BACKBONE|DICT|INTERRES
    41   19   89 1    
    42   20   21 2    
    43   20   22 1    
    44   22   23 1    
    45   22   24 1    
    46   22   90 1    
    47   23   91 1    
    48   23   92 1    
    49   23   93 1    
    50   24   25 am   BACKBONE|DICT|INTERRES
    51   24   94 1    
    52   25   26 2    
    53   25   27 1    
    54   27   28 1    
    55   27   29 1    
    56   27   95 1    
    57   28   96 1    
    58   28   97 1    
    59   28   98 1    
    60   29   30 am   BACKBONE|DICT|INTERRES
    61   29   99 1    
    62   30   31 2    
    63   30   32 1    
    64   32   33 1    
    65   32   34 1    
    66   32  100 1    
    67   33  101 1    
    68   33  102 1    
    69   33  103 1    
    70   34   35 am   BACKBONE|DICT|INTERRES
    71   34  104 1    
    72   35   36 2    
    73   37   38 2    
    74   37   39 am   BACKBONE|DICT|INTERRES
    75   39   40 1    
    76   39  105 1    
    77   40   41 1    
    78   40   42 1    
    79   40  106 1    
    80   41  107 1    
    81   41  108 1    
    82   41  109 1    
    83   42   43 2    
    84   42   44 am   BACKBONE|DICT|INTERRES
    85   44   45 1    
    86   44  110 1    
    87   45   46 1    
    88   45   47 1    
    89   45  111 1    
    90   46  112 1    
    91   46  113 1    
    92   46  114 1    
    93   47   48 2    
    94   47   49 am   BACKBONE|DICT|INTERRES
    95   49   50 1    
    96   49  115 1    
    97   50   51 1    
    98   50   52 1    
    99   50  116 1    
   100   51  117 1    
   101   51  118 1    
   102   51  119 1    
   103   52   53 2    
   104   52   54 am   BACKBONE|DICT|INTERRES
   105   54   55 1    
   106   54  120 1    
   107   55   56 1    
   108   55   57 1    
   109   55  121 1    
   110   56  122 1    
   111   56  123 1    
   112   56  124 1    
   113   57   58 2    
   114   57   59 am   BACKBONE|DICT|INTERRES
   115   59   60 1    
   116   59  125 1    
   117   60   61 1    
   118   60   62 1    
   119   60  126 1    
   120   61  127 1    
   121   61  128 1    
   122   61  129 1    
   123   62   63 2    
   124   62   64 am   BACKBONE|DICT|INTERRES
   125   64   65 1    
   126   64  130 1    
   127   65   66 1    
   128   65   69 1    
   129   65  131 1    
   130   66   67 am   BACKBONE|DICT|INTERRES
   131   66   68 2    
   132   67  132 1    
   133   67  133 1    
   134   69   70 1    
   135   69  134 1    
   136   69  135 1    
   137   70   71 1    
   138   71  136 1    
   139   71  137 1    
@<TRIPOS>SUBSTRUCTURE
     1 UNK         1 GROUP             0       ****    0 ROOT    
