@<TRIPOS>MOLECULE
3R136
137   139    1
SMALL
USER_CHARGES


@<TRIPOS>ATOM
      1 CA         26.6952   22.8493    3.5946 C.3       0 UNK        -0.1979 
      2 C          27.1997   21.8430    2.5709 C.2       0 UNK         0.4864 
      3 O          27.2746   20.6522    2.8773 O.2       0 UNK        -0.5359 
      4 N          27.5368   22.3063    1.3631 N.am      1 UNK        -0.4318 
      5 CA         27.9778   21.4834    0.2344 C.3       1 UNK         0.0824 
      6 C6         29.5197   21.4636    0.0427 C.3       12 UNK        -0.0944 
      7 S7         30.3275   23.1013    0.1447 S.3       12 UNK        -0.2672 
      8 C8         31.0520   23.0331    1.8141 C.3       12 UNK         0.0333 
      9 C9         31.0518   24.4061    2.4651 C.ar      12 UNK        -0.0807 
     10 C10        32.0378   25.3429    2.1421 C.ar      12 UNK        -0.0894 
     11 C11        32.0243   26.6130    2.7256 C.ar      12 UNK        -0.0804 
     12 C12        31.0220   26.9397    3.6437 C.ar      12 UNK        -0.0824 
     13 C13        30.0306   26.0114    3.9733 C.ar      12 UNK        -0.0762 
     14 C14        30.0548   24.7445    3.3847 C.ar      12 UNK        -0.0782 
     15 C15        28.9166   26.3858    4.9408 C.3       12 UNK         0.0230 
     16 S16        27.3566   26.7497    4.0702 S.3       12 UNK        -0.2608 
     17 C17        27.8377   28.1642    3.0257 C.3       12 UNK        -0.0989 
     18 CA         28.1569   27.7443    1.5642 C.3       5 UNK         0.0716 
     19 N          26.9653   27.4339    0.7728 N.am      5 UNK        -0.4135 
     20 C          26.5082   26.2093    0.4913 C.2       4 UNK         0.5031 
     21 O          26.9684   25.1645    0.9594 O.2       4 UNK        -0.5229 
     22 CA         25.3413   26.1627   -0.5071 C.3       4 UNK         0.0329 
     23 CB         25.8129   26.5343   -1.9254 C.3       4 UNK        -0.2001 
     24 N          24.7592   24.8233   -0.5478 N.am      4 UNK        -0.4303 
     25 C          23.4491   24.5450   -0.5702 C.2       3 UNK         0.5044 
     26 O          22.5728   25.4120   -0.5519 O.2       3 UNK        -0.5152 
     27 CA         23.0391   23.0548   -0.6045 C.3       3 UNK         0.0319 
     28 CB         21.6388   22.8322   -1.2163 C.3       3 UNK        -0.2001 
     29 N          24.0322   22.1767   -1.2372 N.am      3 UNK        -0.4354 
     30 C          24.4762   22.2167   -2.5052 C.2       2 UNK         0.4964 
     31 O          24.0248   22.9700   -3.3694 O.2       2 UNK        -0.5047 
     32 CA         25.6452   21.2624   -2.8468 C.3       2 UNK         0.0288 
     33 CB         26.4397   21.7161   -4.0910 C.3       2 UNK        -0.2113 
     34 N          26.5551   21.0244   -1.7120 N.am      2 UNK        -0.4145 
     35 C          27.2155   21.9609   -1.0110 C.2       1 UNK         0.5006 
     36 O          27.1819   23.1622   -1.2805 O.2       1 UNK        -0.5103 
     37 C          28.9306   28.8445    0.8220 C.2       5 UNK         0.5055 
     38 O          30.0641   28.6142    0.3993 O.2       5 UNK        -0.5220 
     39 N          28.2852   30.0112    0.6527 N.am      6 UNK        -0.4450 
     40 CA         28.7616   31.2260   -0.0232 C.3       6 UNK         0.0367 
     41 CB         29.0596   30.9761   -1.5166 C.3       6 UNK        -0.1929 
     42 C          29.9409   31.9011    0.6970 C.2       6 UNK         0.5070 
     43 O          29.7667   32.9761    1.2696 O.2       6 UNK        -0.5237 
     44 N          31.1101   31.2523    0.6957 N.am      7 UNK        -0.4739 
     45 CA         32.3582   31.7335    1.2967 C.3       7 UNK         0.0276 
     46 CB         33.5464   31.1497    0.5101 C.3       7 UNK        -0.1927 
     47 C          32.4464   31.4264    2.8046 C.2       7 UNK         0.5013 
     48 O          33.5223   31.0867    3.3013 O.2       7 UNK        -0.5193 
     49 N          31.3205   31.5467    3.5216 N.am      8 UNK        -0.4253 
     50 CA         31.1817   31.2339    4.9490 C.3       8 UNK         0.0242 
     51 CB         29.7181   31.4270    5.3747 C.3       8 UNK        -0.2000 
     52 C          32.1261   32.0349    5.8631 C.2       8 UNK         0.4948 
     53 O          32.5578   31.5103    6.8884 O.2       8 UNK        -0.5275 
     54 N          32.4735   33.2627    5.4528 N.am      9 UNK        -0.4246 
     55 CA         33.4668   34.1129    6.1133 C.3       9 UNK         0.0261 
     56 CB         33.3985   35.5270    5.5139 C.3       9 UNK        -0.1959 
     57 C          34.9055   33.5644    6.0343 C.2       9 UNK         0.5033 
     58 O          35.7113   33.8900    6.9075 O.2       9 UNK        -0.5390 
     59 N          35.2075   32.7574    5.0066 N.am      10 UNK        -0.4215 
     60 CA         36.4955   32.0861    4.8338 C.3       10 UNK         0.0240 
     61 CB         36.8443   32.0021    3.3378 C.3       10 UNK        -0.1982 
     62 C          36.4722   30.6887    5.4682 C.2       10 UNK         0.4970 
     63 O          37.4197   30.3349    6.1712 O.2       10 UNK        -0.4916 
     64 N          35.4028   29.9230    5.2096 N.am      11 UNK        -0.4279 
     65 CA         35.2152   28.5630    5.7392 C.3       11 UNK         0.1003 
     66 C          34.9538   28.4954    7.2704 C.2       11 UNK         0.5709 
     67 N          34.3517   29.5014    7.8916 N.am      11 UNK        -0.7358 
     68 O          35.3166   27.5106    7.9095 O.2       11 UNK        -0.4999 
     69 C69        34.1279   27.7843    4.9583 C.3       12 UNK        -0.0954 
     70 S70        34.6304   27.4329    3.2403 S.3       12 UNK        -0.2268 
     71 C71        33.0679   27.6468    2.3342 C.3       12 UNK         0.0203 
     72 H72        26.7546   23.8718    3.2246 H         1 UNK         0.0888 
     73 H73        25.6552   22.6409    3.8435 H         1 UNK         0.0888 
     74 H74        27.2834   22.7858    4.5095 H         1 UNK         0.0888 
     75 H75        27.4420   23.2998    1.1490 H         1 UNK         0.3017 
     76 H76        27.6677   20.4510    0.4109 H         1 UNK         0.0873 
     77 H77        29.9631   20.8027    0.7887 H         1 UNK         0.0745 
     78 H78        29.7786   21.0150   -0.9183 H         1 UNK         0.0745 
     79 H79        30.4935   22.3336    2.4380 H         1 UNK         0.0705 
     80 H80        32.0696   22.6448    1.7512 H         1 UNK         0.0705 
     81 H81        32.8059   25.0890    1.4243 H         1 UNK         0.1334 
     82 H82        31.0017   27.9256    4.0856 H         1 UNK         0.1417 
     83 H83        29.2833   24.0293    3.6285 H         1 UNK         0.1562 
     84 H84        29.2022   27.2466    5.5477 H         1 UNK         0.0748 
     85 H85        28.7486   25.5638    5.6382 H         1 UNK         0.0748 
     86 H86        28.6929   28.6593    3.4887 H         1 UNK         0.0940 
     87 H87        27.0262   28.8932    3.0516 H         1 UNK         0.0940 
     88 H88        28.8115   26.8699    1.5813 H         1 UNK         0.0703 
     89 H89        26.5362   28.2166    0.3018 H         1 UNK         0.3081 
     90 H90        24.5952   26.8870   -0.1734 H         1 UNK         0.0719 
     91 H91        26.5840   25.8486   -2.2804 H         1 UNK         0.0809 
     92 H92        24.9873   26.5008   -2.6366 H         1 UNK         0.0809 
     93 H93        26.2281   27.5420   -1.9613 H         1 UNK         0.0809 
     94 H94        25.4417   24.0723   -0.5606 H         1 UNK         0.2990 
     95 H95        22.9892   22.7425    0.4397 H         1 UNK         0.0690 
     96 H96        21.3679   21.7765   -1.2150 H         1 UNK         0.0788 
     97 H97        21.5840   23.1919   -2.2442 H         1 UNK         0.0788 
     98 H98        20.8733   23.3610   -0.6471 H         1 UNK         0.0788 
     99 H99        24.4699   21.5094   -0.6178 H         1 UNK         0.2993 
    100 H100       25.1855   20.3011   -3.0822 H         1 UNK         0.0949 
    101 H101       26.8770   22.7056   -3.9525 H         1 UNK         0.0767 
    102 H102       27.2477   21.0216   -4.3206 H         1 UNK         0.0767 
    103 H103       25.7971   21.7650   -4.9710 H         1 UNK         0.0767 
    104 H104       26.6316   20.0607   -1.4148 H         1 UNK         0.3013 
    105 H105       27.3798   30.1141    1.0894 H         1 UNK         0.3121 
    106 H106       27.9311   31.9329    0.0193 H         1 UNK         0.0774 
    107 H107       29.8700   30.2630   -1.6681 H         1 UNK         0.0815 
    108 H108       29.3496   31.9027   -2.0137 H         1 UNK         0.0815 
    109 H109       28.1803   30.5939   -2.0348 H         1 UNK         0.0815 
    110 H110       31.1124   30.3102    0.3149 H         1 UNK         0.2987 
    111 H111       32.4003   32.8204    1.1976 H         1 UNK         0.0949 
    112 H112       33.5938   30.0639    0.5952 H         1 UNK         0.0806 
    113 H113       33.4818   31.4000   -0.5488 H         1 UNK         0.0806 
    114 H114       34.4940   31.5475    0.8751 H         1 UNK         0.0806 
    115 H115       30.4967   31.8819    3.0379 H         1 UNK         0.3010 
    116 H116       31.4367   30.1802    5.0753 H         1 UNK         0.0829 
    117 H117       29.0478   30.7867    4.8015 H         1 UNK         0.0813 
    118 H118       29.5817   31.1747    6.4274 H         1 UNK         0.0813 
    119 H119       29.3918   32.4592    5.2418 H         1 UNK         0.0813 
    120 H120       32.0609   33.6167    4.6019 H         1 UNK         0.3038 
    121 H121       33.2009   34.1765    7.1708 H         1 UNK         0.0769 
    122 H122       33.6376   35.5276    4.4497 H         1 UNK         0.0811 
    123 H123       34.1074   36.1938    6.0070 H         1 UNK         0.0811 
    124 H124       32.4073   35.9640    5.6374 H         1 UNK         0.0811 
    125 H125       34.4730   32.4830    4.3629 H         1 UNK         0.3204 
    126 H126       37.2807   32.6658    5.3240 H         1 UNK         0.0748 
    127 H127       37.8254   31.5476    3.1938 H         1 UNK         0.0771 
    128 H128       36.1250   31.4005    2.7816 H         1 UNK         0.0771 
    129 H129       36.8759   32.9920    2.8824 H         1 UNK         0.0771 
    130 H130       34.6823   30.2700    4.5835 H         1 UNK         0.2980 
    131 H131       36.1581   28.0342    5.5842 H         1 UNK         0.0545 
    132 H132       34.2020   29.4379    8.8853 H         1 UNK         0.3459 
    133 H133       33.9549   30.2828    7.3791 H         1 UNK         0.3459 
    134 H134       33.9135   26.8240    5.4313 H         1 UNK         0.0616 
    135 H135       33.1946   28.3481    4.9660 H         1 UNK         0.0616 
    136 H136       32.6823   28.6498    2.5031 H         1 UNK         0.0634 
    137 H137       33.2680   27.5760    1.2642 H         1 UNK         0.0634 
@<TRIPOS>BOND
     1    1    2 1    
     2    1   72 1    
     3    1   73 1    
     4    1   74 1    
     5    2    3 2    
     6    2    4 am   BACKBONE|DICT|INTERRES
     7    4    5 1    
     8    4   75 1    
     9    5    6 1    
    10    5   35 1    
    11    5   76 1    
    12    6    7 1    
    13    6   77 1    
    14    6   78 1    
    15    7    8 1    
    16    8    9 1    
    17    8   79 1    
    18    8   80 1    
    19    9   10 ar   
    20    9   14 ar   
    21   10   11 ar   
    22   10   81 1    
    23   11   12 ar   
    24   11   71 1    
    25   12   13 ar   
    26   12   82 1    
    27   13   14 ar   
    28   13   15 1    
    29   14   83 1    
    30   15   16 1    
    31   15   84 1    
    32   15   85 1    
    33   16   17 1    
    34   17   18 1    
    35   17   86 1    
    36   17   87 1    
    37   18   19 1    
    38   18   37 1    
    39   18   88 1    
    40   19   20 am   BACKBONE|DICT|INTERRES
    41   19   89 1    
    42   20   21 2    
    43   20   22 1    
    44   22   23 1    
    45   22   24 1    
    46   22   90 1    
    47   23   91 1    
    48   23   92 1    
    49   23   93 1    
    50   24   25 am   BACKBONE|DICT|INTERRES
    51   24   94 1    
    52   25   26 2    
    53   25   27 1    
    54   27   28 1    
    55   27   29 1    
    56   27   95 1    
    57   28   96 1    
    58   28   97 1    
    59   28   98 1    
    60   29   30 am   BACKBONE|DICT|INTERRES
    61   29   99 1    
    62   30   31 2    
    63   30   32 1    
    64   32   33 1    
    65   32   34 1    
    66   32  100 1    
    67   33  101 1    
    68   33  102 1    
    69   33  103 1    
    70   34   35 am   BACKBONE|DICT|INTERRES
    71   34  104 1    
    72   35   36 2    
    73   37   38 2    
    74   37   39 am   BACKBONE|DICT|INTERRES
    75   39   40 1    
    76   39  105 1    
    77   40   41 1    
    78   40   42 1    
    79   40  106 1    
    80   41  107 1    
    81   41  108 1    
    82   41  109 1    
    83   42   43 2    
    84   42   44 am   BACKBONE|DICT|INTERRES
    85   44   45 1    
    86   44  110 1    
    87   45   46 1    
    88   45   47 1    
    89   45  111 1    
    90   46  112 1    
    91   46  113 1    
    92   46  114 1    
    93   47   48 2    
    94   47   49 am   BACKBONE|DICT|INTERRES
    95   49   50 1    
    96   49  115 1    
    97   50   51 1    
    98   50   52 1    
    99   50  116 1    
   100   51  117 1    
   101   51  118 1    
   102   51  119 1    
   103   52   53 2    
   104   52   54 am   BACKBONE|DICT|INTERRES
   105   54   55 1    
   106   54  120 1    
   107   55   56 1    
   108   55   57 1    
   109   55  121 1    
   110   56  122 1    
   111   56  123 1    
   112   56  124 1    
   113   57   58 2    
   114   57   59 am   BACKBONE|DICT|INTERRES
   115   59   60 1    
   116   59  125 1    
   117   60   61 1    
   118   60   62 1    
   119   60  126 1    
   120   61  127 1    
   121   61  128 1    
   122   61  129 1    
   123   62   63 2    
   124   62   64 am   BACKBONE|DICT|INTERRES
   125   64   65 1    
   126   64  130 1    
   127   65   66 1    
   128   65   69 1    
   129   65  131 1    
   130   66   67 am   BACKBONE|DICT|INTERRES
   131   66   68 2    
   132   67  132 1    
   133   67  133 1    
   134   69   70 1    
   135   69  134 1    
   136   69  135 1    
   137   70   71 1    
   138   71  136 1    
   139   71  137 1    
@<TRIPOS>SUBSTRUCTURE
     1 UNK         1 GROUP             0       ****    0 ROOT    
