@<TRIPOS>MOLECULE
3R136
137   139    1
SMALL
USER_CHARGES


@<TRIPOS>ATOM
      1 CA         32.0746   26.2969   -1.1701 C.3       0 UNK        -0.1979 
      2 C          30.6735   25.7533   -0.9363 C.2       0 UNK         0.4864 
      3 O          29.6945   26.4234   -1.2614 O.2       0 UNK        -0.5359 
      4 N          30.5652   24.5324   -0.3919 N.am      1 UNK        -0.4318 
      5 CA         29.3066   23.8661   -0.0142 C.3       1 UNK         0.0824 
      6 C6         29.5494   22.5768    0.8118 C.3       12 UNK        -0.0944 
      7 S7         30.7068   22.8176    2.2072 S.3       12 UNK        -0.2672 
      8 C8         29.7314   22.3644    3.6826 C.3       12 UNK         0.0333 
      9 C9         29.4169   23.5684    4.5630 C.ar      12 UNK        -0.0807 
     10 C10        30.4568   24.3444    5.0877 C.ar      12 UNK        -0.0894 
     11 C11        30.1894   25.4436    5.9154 C.ar      12 UNK        -0.0804 
     12 C12        28.8596   25.7508    6.2155 C.ar      12 UNK        -0.0824 
     13 C13        27.8093   24.9782    5.7114 C.ar      12 UNK        -0.0762 
     14 C14        28.0942   23.8833    4.8894 C.ar      12 UNK        -0.0782 
     15 C15        26.3695   25.3311    6.0696 C.3       12 UNK         0.0230 
     16 S16        25.3644   25.8143    4.6259 S.3       12 UNK        -0.2608 
     17 C17        26.4289   27.0359    3.7888 C.3       12 UNK        -0.0989 
     18 CA         27.1033   26.4431    2.5209 C.3       5 UNK         0.0716 
     19 N          26.1984   26.4061    1.3753 N.am      5 UNK        -0.4135 
     20 C          25.4256   25.3729    1.0247 C.2       4 UNK         0.5031 
     21 O          25.3969   24.3004    1.6292 O.2       4 UNK        -0.5229 
     22 CA         24.5298   25.5463   -0.2149 C.3       4 UNK         0.0329 
     23 CB         23.3189   26.4536    0.0819 C.3       4 UNK        -0.2001 
     24 N          25.2544   25.9651   -1.4211 N.am      4 UNK        -0.4303 
     25 C          25.8607   27.1312   -1.6846 C.2       3 UNK         0.5044 
     26 O          25.8425   28.0966   -0.9198 O.2       3 UNK        -0.5152 
     27 CA         26.6450   27.2048   -3.0095 C.3       3 UNK         0.0319 
     28 CB         27.5224   28.4667   -3.1073 C.3       3 UNK        -0.2001 
     29 N          27.4959   26.0217   -3.1581 N.am      3 UNK        -0.4354 
     30 C          27.1510   24.8939   -3.7991 C.2       2 UNK         0.4964 
     31 O          26.0972   24.7630   -4.4212 O.2       2 UNK        -0.5047 
     32 CA         28.1056   23.6883   -3.6870 C.3       2 UNK         0.0288 
     33 CB         29.0659   23.6480   -4.8864 C.3       2 UNK        -0.2113 
     34 N          28.8831   23.6838   -2.4455 N.am      2 UNK        -0.4145 
     35 C          28.3671   23.5798   -1.2104 C.2       1 UNK         0.5006 
     36 O          27.1869   23.3026   -0.9978 O.2       1 UNK        -0.5103 
     37 C          28.3360   27.2647    2.1268 C.2       5 UNK         0.5055 
     38 O          28.1949   28.3074    1.4858 O.2       5 UNK        -0.5220 
     39 N          29.5174   26.8202    2.5788 N.am      6 UNK        -0.4450 
     40 CA         30.7980   27.5047    2.3643 C.3       6 UNK         0.0367 
     41 CB         31.9493   26.4989    2.5219 C.3       6 UNK        -0.1929 
     42 C          31.0132   28.7201    3.2847 C.2       6 UNK         0.5070 
     43 O          32.0496   29.3763    3.1798 O.2       6 UNK        -0.5237 
     44 N          30.0502   29.0168    4.1698 N.am      7 UNK        -0.4739 
     45 CA         30.0629   30.1393    5.1154 C.3       7 UNK         0.0276 
     46 CB         28.7913   30.0881    5.9758 C.3       7 UNK        -0.1927 
     47 C          30.2144   31.5197    4.4495 C.2       7 UNK         0.5013 
     48 O          30.7984   32.4178    5.0552 O.2       7 UNK        -0.5193 
     49 N          29.7648   31.6423    3.1917 N.am      8 UNK        -0.4253 
     50 CA         29.9853   32.8036    2.3224 C.3       8 UNK         0.0242 
     51 CB         29.1929   32.6102    1.0197 C.3       8 UNK        -0.2000 
     52 C          31.4716   33.0795    2.0109 C.2       8 UNK         0.4948 
     53 O          31.8187   34.2241    1.7195 O.2       8 UNK        -0.5275 
     54 N          32.3175   32.0443    2.1014 N.am      9 UNK        -0.4246 
     55 CA         33.7742   32.1082    1.9792 C.3       9 UNK         0.0261 
     56 CB         34.2176   31.1102    0.8930 C.3       9 UNK        -0.1959 
     57 C          34.4518   31.8137    3.3328 C.2       9 UNK         0.5033 
     58 O          35.5975   31.3590    3.3492 O.2       9 UNK        -0.5390 
     59 N          33.7290   32.0329    4.4453 N.am      10 UNK        -0.4215 
     60 CA         34.1332   31.7900    5.8381 C.3       10 UNK         0.0240 
     61 CB         35.2321   32.7877    6.2620 C.3       10 UNK        -0.1982 
     62 C          34.5183   30.3247    6.1352 C.2       10 UNK         0.4970 
     63 O          35.3020   30.0751    7.0525 O.2       10 UNK        -0.4916 
     64 N          33.9682   29.3855    5.3539 N.am      11 UNK        -0.4279 
     65 CA         34.3007   27.9551    5.3554 C.3       11 UNK         0.1003 
     66 C          35.7323   27.6203    4.8340 C.2       11 UNK         0.5709 
     67 N          36.4189   28.5309    4.1508 N.am      11 UNK        -0.7358 
     68 O          36.2219   26.5091    5.0203 O.2       11 UNK        -0.4999 
     69 C69        33.9189   27.2457    6.6920 C.3       12 UNK        -0.0954 
     70 S70        32.9880   25.7036    6.4060 S.3       12 UNK        -0.2268 
     71 C71        31.2829   26.3503    6.4862 C.3       12 UNK         0.0203 
     72 H72        32.1761   27.2824   -0.7130 H         1 UNK         0.0888 
     73 H73        32.8408   25.6459   -0.7455 H         1 UNK         0.0888 
     74 H74        32.2634   26.3964   -2.2399 H         1 UNK         0.0888 
     75 H75        31.4029   24.0228   -0.1468 H         1 UNK         0.3017 
     76 H76        28.7661   24.5659    0.6253 H         1 UNK         0.0873 
     77 H77        29.9652   21.7926    0.1760 H         1 UNK         0.0745 
     78 H78        28.5996   22.1886    1.1838 H         1 UNK         0.0745 
     79 H79        30.3131   21.6533    4.2706 H         1 UNK         0.0705 
     80 H80        28.8204   21.8384    3.3956 H         1 UNK         0.0705 
     81 H81        31.4744   24.0828    4.8348 H         1 UNK         0.1334 
     82 H82        28.6416   26.5978    6.8520 H         1 UNK         0.1417 
     83 H83        27.2811   23.2850    4.4996 H         1 UNK         0.1562 
     84 H84        26.3396   26.1425    6.7987 H         1 UNK         0.0748 
     85 H85        25.9013   24.4725    6.5526 H         1 UNK         0.0748 
     86 H86        27.1638   27.4007    4.5078 H         1 UNK         0.0940 
     87 H87        25.8235   27.9062    3.5282 H         1 UNK         0.0940 
     88 H88        27.4471   25.4280    2.7257 H         1 UNK         0.0703 
     89 H89        26.2108   27.2307    0.7772 H         1 UNK         0.3081 
     90 H90        24.1367   24.5559   -0.4506 H         1 UNK         0.0719 
     91 H91        23.6173   27.4678    0.3475 H         1 UNK         0.0809 
     92 H92        22.6499   26.5148   -0.7763 H         1 UNK         0.0809 
     93 H93        22.7389   26.0608    0.9180 H         1 UNK         0.0809 
     94 H94        25.3679   25.2357   -2.1126 H         1 UNK         0.2990 
     95 H95        25.9130   27.2444   -3.8186 H         1 UNK         0.0690 
     96 H96        28.0724   28.4955   -4.0478 H         1 UNK         0.0788 
     97 H97        28.2471   28.5171   -2.2933 H         1 UNK         0.0788 
     98 H98        26.9144   29.3710   -3.0594 H         1 UNK         0.0788 
     99 H99        28.3550   26.0386   -2.6129 H         1 UNK         0.2993 
    100 H100       27.4938   22.7835   -3.7023 H         1 UNK         0.0949 
    101 H101       29.6967   22.7591   -4.8606 H         1 UNK         0.0767 
    102 H102       28.5136   23.6238   -5.8271 H         1 UNK         0.0767 
    103 H103       29.7169   24.5230   -4.9129 H         1 UNK         0.0767 
    104 H104       29.8655   23.9015   -2.5255 H         1 UNK         0.3013 
    105 H105       29.5500   25.9720    3.1294 H         1 UNK         0.3121 
    106 H106       30.8168   27.8820    1.3400 H         1 UNK         0.0774 
    107 H107       32.0322   26.1368    3.5447 H         1 UNK         0.0815 
    108 H108       31.8200   25.6324    1.8769 H         1 UNK         0.0815 
    109 H109       32.9051   26.9538    2.2582 H         1 UNK         0.0815 
    110 H110       29.2348   28.4250    4.1839 H         1 UNK         0.2987 
    111 H111       30.9257   30.0044    5.7712 H         1 UNK         0.0949 
    112 H112       27.8885   30.1768    5.3702 H         1 UNK         0.0806 
    113 H113       28.7294   29.1573    6.5393 H         1 UNK         0.0806 
    114 H114       28.7781   30.9030    6.7011 H         1 UNK         0.0806 
    115 H115       29.3014   30.8462    2.7763 H         1 UNK         0.3010 
    116 H116       29.5933   33.6825    2.8383 H         1 UNK         0.0829 
    117 H117       28.1257   32.5039    1.2155 H         1 UNK         0.0813 
    118 H118       29.3149   33.4681    0.3569 H         1 UNK         0.0813 
    119 H119       29.5236   31.7261    0.4731 H         1 UNK         0.0813 
    120 H120       31.9554   31.1349    2.3757 H         1 UNK         0.3038 
    121 H121       34.0903   33.1083    1.6767 H         1 UNK         0.0769 
    122 H122       35.2928   31.1682    0.7191 H         1 UNK         0.0811 
    123 H123       33.7266   31.3161   -0.0581 H         1 UNK         0.0811 
    124 H124       33.9863   30.0818    1.1745 H         1 UNK         0.0811 
    125 H125       32.7819   32.3800    4.3362 H         1 UNK         0.3204 
    126 H126       33.2515   31.9937    6.4472 H         1 UNK         0.0748 
    127 H127       35.4394   32.7151    7.3304 H         1 UNK         0.0771 
    128 H128       36.1692   32.6039    5.7355 H         1 UNK         0.0771 
    129 H129       34.9317   33.8164    6.0626 H         1 UNK         0.0771 
    130 H130       33.3486   29.6707    4.6020 H         1 UNK         0.2980 
    131 H131       33.6558   27.5607    4.5732 H         1 UNK         0.0545 
    132 H132       37.3377   28.2965    3.8114 H         1 UNK         0.3459 
    133 H133       36.0392   29.4544    3.9727 H         1 UNK         0.3459 
    134 H134       33.3067   27.8945    7.3204 H         1 UNK         0.0616 
    135 H135       34.8019   27.0212    7.2928 H         1 UNK         0.0616 
    136 H136       31.2483   27.2989    5.9526 H         1 UNK         0.0634 
    137 H137       31.0584   26.5751    7.5300 H         1 UNK         0.0634 
@<TRIPOS>BOND
     1    1    2 1    
     2    1   72 1    
     3    1   73 1    
     4    1   74 1    
     5    2    3 2    
     6    2    4 am   BACKBONE|DICT|INTERRES
     7    4    5 1    
     8    4   75 1    
     9    5    6 1    
    10    5   35 1    
    11    5   76 1    
    12    6    7 1    
    13    6   77 1    
    14    6   78 1    
    15    7    8 1    
    16    8    9 1    
    17    8   79 1    
    18    8   80 1    
    19    9   10 ar   
    20    9   14 ar   
    21   10   11 ar   
    22   10   81 1    
    23   11   12 ar   
    24   11   71 1    
    25   12   13 ar   
    26   12   82 1    
    27   13   14 ar   
    28   13   15 1    
    29   14   83 1    
    30   15   16 1    
    31   15   84 1    
    32   15   85 1    
    33   16   17 1    
    34   17   18 1    
    35   17   86 1    
    36   17   87 1    
    37   18   19 1    
    38   18   37 1    
    39   18   88 1    
    40   19   20 am   BACKBONE|DICT|INTERRES
    41   19   89 1    
    42   20   21 2    
    43   20   22 1    
    44   22   23 1    
    45   22   24 1    
    46   22   90 1    
    47   23   91 1    
    48   23   92 1    
    49   23   93 1    
    50   24   25 am   BACKBONE|DICT|INTERRES
    51   24   94 1    
    52   25   26 2    
    53   25   27 1    
    54   27   28 1    
    55   27   29 1    
    56   27   95 1    
    57   28   96 1    
    58   28   97 1    
    59   28   98 1    
    60   29   30 am   BACKBONE|DICT|INTERRES
    61   29   99 1    
    62   30   31 2    
    63   30   32 1    
    64   32   33 1    
    65   32   34 1    
    66   32  100 1    
    67   33  101 1    
    68   33  102 1    
    69   33  103 1    
    70   34   35 am   BACKBONE|DICT|INTERRES
    71   34  104 1    
    72   35   36 2    
    73   37   38 2    
    74   37   39 am   BACKBONE|DICT|INTERRES
    75   39   40 1    
    76   39  105 1    
    77   40   41 1    
    78   40   42 1    
    79   40  106 1    
    80   41  107 1    
    81   41  108 1    
    82   41  109 1    
    83   42   43 2    
    84   42   44 am   BACKBONE|DICT|INTERRES
    85   44   45 1    
    86   44  110 1    
    87   45   46 1    
    88   45   47 1    
    89   45  111 1    
    90   46  112 1    
    91   46  113 1    
    92   46  114 1    
    93   47   48 2    
    94   47   49 am   BACKBONE|DICT|INTERRES
    95   49   50 1    
    96   49  115 1    
    97   50   51 1    
    98   50   52 1    
    99   50  116 1    
   100   51  117 1    
   101   51  118 1    
   102   51  119 1    
   103   52   53 2    
   104   52   54 am   BACKBONE|DICT|INTERRES
   105   54   55 1    
   106   54  120 1    
   107   55   56 1    
   108   55   57 1    
   109   55  121 1    
   110   56  122 1    
   111   56  123 1    
   112   56  124 1    
   113   57   58 2    
   114   57   59 am   BACKBONE|DICT|INTERRES
   115   59   60 1    
   116   59  125 1    
   117   60   61 1    
   118   60   62 1    
   119   60  126 1    
   120   61  127 1    
   121   61  128 1    
   122   61  129 1    
   123   62   63 2    
   124   62   64 am   BACKBONE|DICT|INTERRES
   125   64   65 1    
   126   64  130 1    
   127   65   66 1    
   128   65   69 1    
   129   65  131 1    
   130   66   67 am   BACKBONE|DICT|INTERRES
   131   66   68 2    
   132   67  132 1    
   133   67  133 1    
   134   69   70 1    
   135   69  134 1    
   136   69  135 1    
   137   70   71 1    
   138   71  136 1    
   139   71  137 1    
@<TRIPOS>SUBSTRUCTURE
     1 UNK         1 GROUP             0       ****    0 ROOT    
