@<TRIPOS>MOLECULE
3R136
137   139    1
SMALL
USER_CHARGES


@<TRIPOS>ATOM
      1 CA         26.5139   22.0438    6.4407 C.3       0 UNK        -0.1979 
      2 C          26.9968   21.7630    5.0255 C.2       0 UNK         0.4864 
      3 O          26.8603   20.6371    4.5449 O.2       0 UNK        -0.5359 
      4 N          27.5599   22.7781    4.3559 N.am      1 UNK        -0.4318 
      5 CA         28.1026   22.6895    2.9926 C.3       1 UNK         0.0824 
      6 C6         29.0309   23.8845    2.6623 C.3       12 UNK        -0.0944 
      7 S7         30.4701   23.9533    3.7810 S.3       12 UNK        -0.2672 
      8 C8         31.7418   23.1005    2.7967 C.3       12 UNK         0.0333 
      9 C9         32.4007   24.0366    1.7945 C.ar      12 UNK        -0.0807 
     10 C10        33.4533   24.8620    2.2017 C.ar      12 UNK        -0.0894 
     11 C11        34.0767   25.7185    1.2902 C.ar      12 UNK        -0.0804 
     12 C12        33.6343   25.7549   -0.0350 C.ar      12 UNK        -0.0824 
     13 C13        32.5806   24.9361   -0.4537 C.ar      12 UNK        -0.0762 
     14 C14        31.9742   24.0713    0.4627 C.ar      12 UNK        -0.0782 
     15 C15        32.0973   24.9861   -1.8969 C.3       12 UNK         0.0230 
     16 S16        30.4925   25.8336   -2.0480 S.3       12 UNK        -0.2608 
     17 C17        30.8853   27.4782   -1.3628 C.3       12 UNK        -0.0989 
     18 CA         29.9764   28.5973   -1.9250 C.3       5 UNK         0.0716 
     19 N          28.5535   28.3175   -1.6962 N.am      5 UNK        -0.4135 
     20 C          27.5338   28.9563   -2.2821 C.2       4 UNK         0.5031 
     21 O          27.6806   29.8491   -3.1193 O.2       4 UNK        -0.5229 
     22 CA         26.1176   28.5087   -1.8678 C.3       4 UNK         0.0329 
     23 CB         25.0100   29.3115   -2.5764 C.3       4 UNK        -0.2001 
     24 N          25.8966   27.0802   -2.1109 N.am      4 UNK        -0.4303 
     25 C          26.3334   26.0867   -1.3278 C.2       3 UNK         0.5044 
     26 O          27.0149   26.2642   -0.3141 O.2       3 UNK        -0.5152 
     27 CA         25.9878   24.6588   -1.7789 C.3       3 UNK         0.0319 
     28 CB         27.1534   24.0483   -2.5726 C.3       3 UNK        -0.2001 
     29 N          25.6937   23.8002   -0.6336 N.am      3 UNK        -0.4354 
     30 C          24.6101   23.8903    0.1453 C.2       2 UNK         0.4964 
     31 O          23.6701   24.6538   -0.0802 O.2       2 UNK        -0.5047 
     32 CA         24.5590   22.9866    1.3916 C.3       2 UNK         0.0288 
     33 CB         24.1358   21.5504    1.0236 C.3       2 UNK        -0.2113 
     34 N          25.7821   22.9980    2.2109 N.am      2 UNK        -0.4145 
     35 C          27.0102   22.5421    1.9120 C.2       1 UNK         0.5006 
     36 O          27.3093   22.0300    0.8314 O.2       1 UNK        -0.5103 
     37 C          30.4018   29.9617   -1.3416 C.2       5 UNK         0.5055 
     38 O          31.3150   30.5945   -1.8740 O.2       5 UNK        -0.5220 
     39 N          29.7354   30.3814   -0.2615 N.am      6 UNK        -0.4450 
     40 CA         29.9269   31.6269    0.4693 C.3       6 UNK         0.0367 
     41 CB         31.1964   31.5356    1.3390 C.3       6 UNK        -0.1929 
     42 C          28.6708   31.8566    1.3217 C.2       6 UNK         0.5070 
     43 O          27.8311   30.9569    1.4251 O.2       6 UNK        -0.5237 
     44 N          28.5635   33.0464    1.9285 N.am      7 UNK        -0.4739 
     45 CA         27.4604   33.4256    2.8239 C.3       7 UNK         0.0276 
     46 CB         27.5381   34.9334    3.1139 C.3       7 UNK        -0.1927 
     47 C          27.4285   32.6249    4.1410 C.2       7 UNK         0.5013 
     48 O          26.3568   32.4571    4.7243 O.2       7 UNK        -0.5193 
     49 N          28.5960   32.1368    4.5695 N.am      8 UNK        -0.4253 
     50 CA         28.8037   31.2220    5.6839 C.3       8 UNK         0.0242 
     51 CB         28.9455   32.0114    6.9973 C.3       8 UNK        -0.2000 
     52 C          30.0772   30.4307    5.3742 C.2       8 UNK         0.4948 
     53 O          30.9444   30.9397    4.6578 O.2       8 UNK        -0.5275 
     54 N          30.2028   29.2238    5.9390 N.am      9 UNK        -0.4246 
     55 CA         31.3267   28.2985    5.7321 C.3       9 UNK         0.0261 
     56 CB         30.8783   26.8767    6.1183 C.3       9 UNK        -0.1959 
     57 C          32.6292   28.7208    6.4503 C.2       9 UNK         0.5033 
     58 O          33.3166   27.8783    7.0312 O.2       9 UNK        -0.5390 
     59 N          32.9649   30.0158    6.3844 N.am      10 UNK        -0.4215 
     60 CA         34.1576   30.6312    6.9764 C.3       10 UNK         0.0240 
     61 CB         34.0495   32.1592    6.8476 C.3       10 UNK        -0.1982 
     62 C          35.4767   30.1266    6.3644 C.2       10 UNK         0.4970 
     63 O          36.5103   30.1736    7.0322 O.2       10 UNK        -0.4916 
     64 N          35.4094   29.6371    5.1210 N.am      11 UNK        -0.4279 
     65 CA         36.4883   28.9303    4.4224 C.3       11 UNK         0.1003 
     66 C          36.8021   27.5056    4.9725 C.2       11 UNK         0.5709 
     67 N          35.9928   26.9278    5.8547 N.am      11 UNK        -0.7358 
     68 O          37.8115   26.9159    4.5946 O.2       11 UNK        -0.4999 
     69 C69        36.2503   28.9325    2.8885 C.3       12 UNK        -0.0954 
     70 S70        34.6592   28.1857    2.3846 S.3       12 UNK        -0.2268 
     71 C71        35.2386   26.5908    1.7348 C.3       12 UNK         0.0203 
     72 H72        26.6998   23.0757    6.7383 H         1 UNK         0.0888 
     73 H73        25.4431   21.8566    6.5161 H         1 UNK         0.0888 
     74 H74        27.0250   21.3906    7.1474 H         1 UNK         0.0888 
     75 H75        27.6762   23.6715    4.8133 H         1 UNK         0.3017 
     76 H76        28.7028   21.7782    2.9398 H         1 UNK         0.0873 
     77 H77        28.4874   24.8277    2.7451 H         1 UNK         0.0745 
     78 H78        29.3804   23.8345    1.6303 H         1 UNK         0.0745 
     79 H79        32.4991   22.7040    3.4747 H         1 UNK         0.0705 
     80 H80        31.3053   22.2362    2.2935 H         1 UNK         0.0705 
     81 H81        33.7879   24.8376    3.2301 H         1 UNK         0.1334 
     82 H82        34.1114   26.4229   -0.7393 H         1 UNK         0.1417 
     83 H83        31.1633   23.4345    0.1363 H         1 UNK         0.1562 
     84 H84        31.9985   23.9702   -2.2821 H         1 UNK         0.0748 
     85 H85        32.8284   25.4843   -2.5356 H         1 UNK         0.0748 
     86 H86        31.9305   27.7052   -1.5827 H         1 UNK         0.0940 
     87 H87        30.8076   27.4208   -0.2747 H         1 UNK         0.0940 
     88 H88        30.1314   28.6480   -3.0050 H         1 UNK         0.0703 
     89 H89        28.3314   27.5599   -1.0568 H         1 UNK         0.3081 
     90 H90        26.0253   28.6997   -0.7961 H         1 UNK         0.0719 
     91 H91        25.0377   29.1726   -3.6579 H         1 UNK         0.0809 
     92 H92        24.0205   29.0182   -2.2250 H         1 UNK         0.0809 
     93 H93        25.1160   30.3796   -2.3815 H         1 UNK         0.0809 
     94 H94        25.3837   26.8449   -2.9488 H         1 UNK         0.2990 
     95 H95        25.1043   24.6907   -2.4200 H         1 UNK         0.0690 
     96 H96        26.8978   23.0602   -2.9556 H         1 UNK         0.0788 
     97 H97        28.0479   23.9465   -1.9564 H         1 UNK         0.0788 
     98 H98        27.4166   24.6710   -3.4288 H         1 UNK         0.0788 
     99 H99        26.4227   23.1562   -0.3371 H         1 UNK         0.2993 
    100 H100       23.7774   23.3967    2.0336 H         1 UNK         0.0949 
    101 H101       24.8561   21.0661    0.3637 H         1 UNK         0.0767 
    102 H102       24.0277   20.9301    1.9135 H         1 UNK         0.0767 
    103 H103       23.1744   21.5492    0.5083 H         1 UNK         0.0767 
    104 H104       25.6743   23.4232    3.1211 H         1 UNK         0.3013 
    105 H105       28.9577   29.8340    0.0897 H         1 UNK         0.3121 
    106 H106       30.0176   32.4511   -0.2412 H         1 UNK         0.0774 
    107 H107       31.3318   32.4289    1.9494 H         1 UNK         0.0815 
    108 H108       31.1563   30.6804    2.0145 H         1 UNK         0.0815 
    109 H109       32.0916   31.4292    0.7263 H         1 UNK         0.0815 
    110 H110       29.2897   33.7347    1.7866 H         1 UNK         0.2987 
    111 H111       26.5214   33.2251    2.3028 H         1 UNK         0.0949 
    112 H112       28.4666   35.2007    3.6201 H         1 UNK         0.0806 
    113 H113       27.4733   35.5189    2.1965 H         1 UNK         0.0806 
    114 H114       26.7148   35.2497    3.7561 H         1 UNK         0.0806 
    115 H115       29.4267   32.2863    4.0095 H         1 UNK         0.3010 
    116 H116       27.9618   30.5293    5.7497 H         1 UNK         0.0829 
    117 H117       28.0454   32.5877    7.2123 H         1 UNK         0.0813 
    118 H118       29.1105   31.3420    7.8424 H         1 UNK         0.0813 
    119 H119       29.7859   32.7060    6.9604 H         1 UNK         0.0813 
    120 H120       29.4700   28.9009    6.5550 H         1 UNK         0.3038 
    121 H121       31.5578   28.2863    4.6644 H         1 UNK         0.0769 
    122 H122       30.6551   26.7987    7.1829 H         1 UNK         0.0811 
    123 H123       31.6558   26.1452    5.8927 H         1 UNK         0.0811 
    124 H124       29.9897   26.5752    5.5635 H         1 UNK         0.0811 
    125 H125       32.3541   30.6156    5.8332 H         1 UNK         0.3204 
    126 H126       34.1718   30.3738    8.0375 H         1 UNK         0.0748 
    127 H127       34.9106   32.6521    7.3014 H         1 UNK         0.0771 
    128 H128       34.0047   32.4739    5.8040 H         1 UNK         0.0771 
    129 H129       33.1591   32.5375    7.3503 H         1 UNK         0.0771 
    130 H130       34.5170   29.6373    4.6504 H         1 UNK         0.2980 
    131 H131       37.3996   29.5056    4.5956 H         1 UNK         0.0545 
    132 H132       35.1535   27.3893    6.1847 H         1 UNK         0.3459 
    133 H133       36.2233   26.0098    6.1989 H         1 UNK         0.3459 
    134 H134       37.0753   28.4431    2.3674 H         1 UNK         0.0616 
    135 H135       36.2535   29.9619    2.5271 H         1 UNK         0.0616 
    136 H136       35.8177   26.0729    2.5006 H         1 UNK         0.0634 
    137 H137       35.9182   26.7664    0.8994 H         1 UNK         0.0634 
@<TRIPOS>BOND
     1    1    2 1    
     2    1   72 1    
     3    1   73 1    
     4    1   74 1    
     5    2    3 2    
     6    2    4 am   BACKBONE|DICT|INTERRES
     7    4    5 1    
     8    4   75 1    
     9    5    6 1    
    10    5   35 1    
    11    5   76 1    
    12    6    7 1    
    13    6   77 1    
    14    6   78 1    
    15    7    8 1    
    16    8    9 1    
    17    8   79 1    
    18    8   80 1    
    19    9   10 ar   
    20    9   14 ar   
    21   10   11 ar   
    22   10   81 1    
    23   11   12 ar   
    24   11   71 1    
    25   12   13 ar   
    26   12   82 1    
    27   13   14 ar   
    28   13   15 1    
    29   14   83 1    
    30   15   16 1    
    31   15   84 1    
    32   15   85 1    
    33   16   17 1    
    34   17   18 1    
    35   17   86 1    
    36   17   87 1    
    37   18   19 1    
    38   18   37 1    
    39   18   88 1    
    40   19   20 am   BACKBONE|DICT|INTERRES
    41   19   89 1    
    42   20   21 2    
    43   20   22 1    
    44   22   23 1    
    45   22   24 1    
    46   22   90 1    
    47   23   91 1    
    48   23   92 1    
    49   23   93 1    
    50   24   25 am   BACKBONE|DICT|INTERRES
    51   24   94 1    
    52   25   26 2    
    53   25   27 1    
    54   27   28 1    
    55   27   29 1    
    56   27   95 1    
    57   28   96 1    
    58   28   97 1    
    59   28   98 1    
    60   29   30 am   BACKBONE|DICT|INTERRES
    61   29   99 1    
    62   30   31 2    
    63   30   32 1    
    64   32   33 1    
    65   32   34 1    
    66   32  100 1    
    67   33  101 1    
    68   33  102 1    
    69   33  103 1    
    70   34   35 am   BACKBONE|DICT|INTERRES
    71   34  104 1    
    72   35   36 2    
    73   37   38 2    
    74   37   39 am   BACKBONE|DICT|INTERRES
    75   39   40 1    
    76   39  105 1    
    77   40   41 1    
    78   40   42 1    
    79   40  106 1    
    80   41  107 1    
    81   41  108 1    
    82   41  109 1    
    83   42   43 2    
    84   42   44 am   BACKBONE|DICT|INTERRES
    85   44   45 1    
    86   44  110 1    
    87   45   46 1    
    88   45   47 1    
    89   45  111 1    
    90   46  112 1    
    91   46  113 1    
    92   46  114 1    
    93   47   48 2    
    94   47   49 am   BACKBONE|DICT|INTERRES
    95   49   50 1    
    96   49  115 1    
    97   50   51 1    
    98   50   52 1    
    99   50  116 1    
   100   51  117 1    
   101   51  118 1    
   102   51  119 1    
   103   52   53 2    
   104   52   54 am   BACKBONE|DICT|INTERRES
   105   54   55 1    
   106   54  120 1    
   107   55   56 1    
   108   55   57 1    
   109   55  121 1    
   110   56  122 1    
   111   56  123 1    
   112   56  124 1    
   113   57   58 2    
   114   57   59 am   BACKBONE|DICT|INTERRES
   115   59   60 1    
   116   59  125 1    
   117   60   61 1    
   118   60   62 1    
   119   60  126 1    
   120   61  127 1    
   121   61  128 1    
   122   61  129 1    
   123   62   63 2    
   124   62   64 am   BACKBONE|DICT|INTERRES
   125   64   65 1    
   126   64  130 1    
   127   65   66 1    
   128   65   69 1    
   129   65  131 1    
   130   66   67 am   BACKBONE|DICT|INTERRES
   131   66   68 2    
   132   67  132 1    
   133   67  133 1    
   134   69   70 1    
   135   69  134 1    
   136   69  135 1    
   137   70   71 1    
   138   71  136 1    
   139   71  137 1    
@<TRIPOS>SUBSTRUCTURE
     1 UNK         1 GROUP             0       ****    0 ROOT    
