@<TRIPOS>MOLECULE
3R136
137   139    1
SMALL
USER_CHARGES


@<TRIPOS>ATOM
      1 CA         27.3259   19.1101   -0.2419 C.3       0 UNK        -0.1979 
      2 C          28.3553   19.5072    0.8134 C.2       0 UNK         0.4864 
      3 O          28.5758   18.7487    1.7558 O.2       0 UNK        -0.5359 
      4 N          29.0104   20.6728    0.7075 N.am      1 UNK        -0.4318 
      5 CA         28.8429   21.6932   -0.3382 C.3       1 UNK         0.0824 
      6 C6         30.0677   22.6303   -0.4269 C.3       12 UNK        -0.0944 
      7 S7         31.6468   21.7733   -0.7732 S.3       12 UNK        -0.2672 
      8 C8         32.5728   21.8966    0.7994 C.3       12 UNK         0.0333 
      9 C9         32.5376   23.2972    1.3972 C.ar      12 UNK        -0.0807 
     10 C10        33.1207   24.3749    0.7242 C.ar      12 UNK        -0.0894 
     11 C11        32.9926   25.6759    1.2218 C.ar      12 UNK        -0.0804 
     12 C12        32.2784   25.8916    2.4053 C.ar      12 UNK        -0.0824 
     13 C13        31.7294   24.8163    3.1083 C.ar      12 UNK        -0.0762 
     14 C14        31.8687   23.5216    2.6034 C.ar      12 UNK        -0.0782 
     15 C15        30.9682   25.0404    4.4046 C.3       12 UNK         0.0230 
     16 S16        29.1822   24.8260    4.1369 S.3       12 UNK        -0.2608 
     17 C17        28.5257   26.4817    4.5304 C.3       12 UNK        -0.0989 
     18 CA         28.9268   27.5992    3.5324 C.3       5 UNK         0.0716 
     19 N          28.7229   27.2121    2.1340 N.am      5 UNK        -0.4135 
     20 C          29.2333   27.8676    1.0805 C.2       4 UNK         0.5031 
     21 O          29.9344   28.8745    1.1726 O.2       4 UNK        -0.5229 
     22 CA         28.8592   27.3454   -0.3194 C.3       4 UNK         0.0329 
     23 CB         29.8851   26.3031   -0.7842 C.3       4 UNK        -0.2001 
     24 N          27.5088   26.7773   -0.3918 N.am      4 UNK        -0.4303 
     25 C          26.3857   27.4466   -0.0911 C.2       3 UNK         0.5044 
     26 O          26.3690   28.6337    0.2352 O.2       3 UNK        -0.5152 
     27 CA         25.0648   26.6576   -0.0915 C.3       3 UNK         0.0319 
     28 CB         24.3397   26.8343   -1.4343 C.3       3 UNK        -0.2001 
     29 N          25.1944   25.2256    0.2049 N.am      3 UNK        -0.4354 
     30 C          25.7682   24.6887    1.2923 C.2       2 UNK         0.4964 
     31 O          26.3360   25.3497    2.1620 O.2       2 UNK        -0.5047 
     32 CA         25.7055   23.1568    1.4376 C.3       2 UNK         0.0288 
     33 CB         24.5011   22.5114    0.7135 C.3       2 UNK        -0.2113 
     34 N          26.9576   22.5010    1.0435 N.am      2 UNK        -0.4145 
     35 C          27.5603   22.5383   -0.1568 C.2       1 UNK         0.5006 
     36 O          27.1453   23.1975   -1.1111 O.2       1 UNK        -0.5103 
     37 C          28.1831   28.9028    3.8885 C.2       5 UNK         0.5055 
     38 O          28.6297   29.6256    4.7783 O.2       5 UNK        -0.5220 
     39 N          27.0583   29.1736    3.2100 N.am      6 UNK        -0.4450 
     40 CA         26.2894   30.4089    3.3567 C.3       6 UNK         0.0367 
     41 CB         24.8177   30.1501    2.9944 C.3       6 UNK        -0.1929 
     42 C          26.8776   31.5321    2.4906 C.2       6 UNK         0.5070 
     43 O          26.9338   32.6759    2.9421 O.2       6 UNK        -0.5237 
     44 N          27.3057   31.1873    1.2672 N.am      7 UNK        -0.4739 
     45 CA         27.9114   32.1069    0.3021 C.3       7 UNK         0.0276 
     46 CB         28.0398   31.4068   -1.0599 C.3       7 UNK        -0.1927 
     47 C          29.2733   32.6571    0.7573 C.2       7 UNK         0.5013 
     48 O          29.5353   33.8444    0.5594 O.2       7 UNK        -0.5193 
     49 N          30.1051   31.7976    1.3579 N.am      8 UNK        -0.4253 
     50 CA         31.4217   32.1393    1.8832 C.3       8 UNK         0.0242 
     51 CB         32.5015   31.5606    0.9504 C.3       8 UNK        -0.2000 
     52 C          31.5262   31.5890    3.3085 C.2       8 UNK         0.4948 
     53 O          31.9638   30.4553    3.4966 O.2       8 UNK        -0.5275 
     54 N          31.1315   32.4027    4.2970 N.am      9 UNK        -0.4246 
     55 CA         31.1130   32.0459    5.7234 C.3       9 UNK         0.0261 
     56 CB         30.4895   33.2005    6.5245 C.3       9 UNK        -0.1959 
     57 C          32.4820   31.6543    6.3166 C.2       9 UNK         0.5033 
     58 O          32.5220   30.9059    7.2941 O.2       9 UNK        -0.5390 
     59 N          33.5723   32.1575    5.7222 N.am      10 UNK        -0.4215 
     60 CA         34.9511   31.8186    6.0826 C.3       10 UNK         0.0240 
     61 CB         35.8749   32.9645    5.6358 C.3       10 UNK        -0.1982 
     62 C          35.4331   30.4805    5.4870 C.2       10 UNK         0.4970 
     63 O          36.4474   29.9586    5.9520 O.2       10 UNK        -0.4916 
     64 N          34.7396   29.9639    4.4643 N.am      11 UNK        -0.4279 
     65 CA         35.0592   28.7032    3.7850 C.3       11 UNK         0.1003 
     66 C          34.5862   27.4768    4.6134 C.2       11 UNK         0.5709 
     67 N          35.3316   26.3806    4.5833 N.am      11 UNK        -0.7358 
     68 O          33.5444   27.5016    5.2658 O.2       11 UNK        -0.4999 
     69 C69        34.4760   28.7291    2.3496 C.3       12 UNK        -0.0954 
     70 S70        35.1320   27.4488    1.2303 S.3       12 UNK        -0.2268 
     71 C71        33.5974   26.8442    0.4565 C.3       12 UNK         0.0203 
     72 H72        27.7782   19.0665   -1.2321 H         1 UNK         0.0888 
     73 H73        26.9197   18.1226   -0.0238 H         1 UNK         0.0888 
     74 H74        26.4920   19.8106   -0.2632 H         1 UNK         0.0888 
     75 H75        29.7064   20.8896    1.4054 H         1 UNK         0.3017 
     76 H76        28.7537   21.1886   -1.3017 H         1 UNK         0.0873 
     77 H77        29.9281   23.3462   -1.2390 H         1 UNK         0.0745 
     78 H78        30.1393   23.2249    0.4822 H         1 UNK         0.0745 
     79 H79        33.6097   21.6077    0.6227 H         1 UNK         0.0705 
     80 H80        32.1683   21.1654    1.5007 H         1 UNK         0.0705 
     81 H81        33.6431   24.2009   -0.2067 H         1 UNK         0.1334 
     82 H82        32.1516   26.8943    2.7863 H         1 UNK         0.1417 
     83 H83        31.4185   22.6946    3.1356 H         1 UNK         0.1562 
     84 H84        31.1833   26.0272    4.8169 H         1 UNK         0.0748 
     85 H85        31.3040   24.3209    5.1526 H         1 UNK         0.0748 
     86 H86        28.8402   26.7461    5.5421 H         1 UNK         0.0940 
     87 H87        27.4385   26.3842    4.5719 H         1 UNK         0.0940 
     88 H88        29.9923   27.8022    3.6593 H         1 UNK         0.0703 
     89 H89        28.1202   26.4098    1.9838 H         1 UNK         0.3081 
     90 H90        28.8926   28.1880   -1.0118 H         1 UNK         0.0719 
     91 H91        30.8727   26.7534   -0.8868 H         1 UNK         0.0809 
     92 H92        29.6213   25.8788   -1.7530 H         1 UNK         0.0809 
     93 H93        29.9771   25.4897   -0.0655 H         1 UNK         0.0809 
     94 H94        27.4279   25.8019   -0.6455 H         1 UNK         0.2990 
     95 H95        24.4388   27.0894    0.6920 H         1 UNK         0.0690 
     96 H96        23.3471   26.3842   -1.4128 H         1 UNK         0.0788 
     97 H97        24.8972   26.3823   -2.2558 H         1 UNK         0.0788 
     98 H98        24.2083   27.8912   -1.6716 H         1 UNK         0.0788 
     99 H99        24.7992   24.5894   -0.4728 H         1 UNK         0.2993 
    100 H100       25.5814   22.9659    2.5050 H         1 UNK         0.0949 
    101 H101       23.5646   22.9882    1.0068 H         1 UNK         0.0767 
    102 H102       24.5795   22.5753   -0.3721 H         1 UNK         0.0767 
    103 H103       24.4145   21.4557    0.9714 H         1 UNK         0.0767 
    104 H104       27.4123   21.9682    1.7719 H         1 UNK         0.3013 
    105 H105       26.7742   28.5475    2.4682 H         1 UNK         0.3121 
    106 H106       26.3258   30.7333    4.3993 H         1 UNK         0.0774 
    107 H107       24.2210   31.0528    3.1316 H         1 UNK         0.0815 
    108 H108       24.6998   29.8388    1.9561 H         1 UNK         0.0815 
    109 H109       24.3839   29.3762    3.6277 H         1 UNK         0.0815 
    110 H110       27.1525   30.2331    0.9521 H         1 UNK         0.2987 
    111 H111       27.2347   32.9564    0.1861 H         1 UNK         0.0949 
    112 H112       27.0748   31.0435   -1.4140 H         1 UNK         0.0806 
    113 H113       28.4269   32.0920   -1.8152 H         1 UNK         0.0806 
    114 H114       28.7210   30.5572   -1.0115 H         1 UNK         0.0806 
    115 H115       29.8328   30.8220    1.4577 H         1 UNK         0.3010 
    116 H116       31.5573   33.2220    1.9291 H         1 UNK         0.0829 
    117 H117       32.4431   32.0057   -0.0428 H         1 UNK         0.0813 
    118 H118       33.5007   31.7608    1.3382 H         1 UNK         0.0813 
    119 H119       32.3996   30.4804    0.8358 H         1 UNK         0.0813 
    120 H120       30.7672   33.3138    4.0564 H         1 UNK         0.3038 
    121 H121       30.4666   31.1732    5.8293 H         1 UNK         0.0769 
    122 H122       31.0714   34.1182    6.4310 H         1 UNK         0.0811 
    123 H123       30.4362   32.9549    7.5862 H         1 UNK         0.0811 
    124 H124       29.4723   33.4095    6.1925 H         1 UNK         0.0811 
    125 H125       33.4433   32.7792    4.9373 H         1 UNK         0.3204 
    126 H126       35.0189   31.7336    7.1694 H         1 UNK         0.0748 
    127 H127       36.9093   32.7667    5.9209 H         1 UNK         0.0771 
    128 H128       35.8563   33.1014    4.5537 H         1 UNK         0.0771 
    129 H129       35.5893   33.9088    6.0999 H         1 UNK         0.0771 
    130 H130       33.8502   30.3764    4.2042 H         1 UNK         0.2980 
    131 H131       36.1462   28.6486    3.6957 H         1 UNK         0.0545 
    132 H132       36.1694   26.3388    4.0249 H         1 UNK         0.3459 
    133 H133       35.0334   25.5716    5.1039 H         1 UNK         0.3459 
    134 H134       33.3890   28.6795    2.3798 H         1 UNK         0.0616 
    135 H135       34.7116   29.6851    1.8808 H         1 UNK         0.0616 
    136 H136       32.8705   27.6535    0.3705 H         1 UNK         0.0634 
    137 H137       33.8279   26.5424   -0.5662 H         1 UNK         0.0634 
@<TRIPOS>BOND
     1    1    2 1    
     2    1   72 1    
     3    1   73 1    
     4    1   74 1    
     5    2    3 2    
     6    2    4 am   BACKBONE|DICT|INTERRES
     7    4    5 1    
     8    4   75 1    
     9    5    6 1    
    10    5   35 1    
    11    5   76 1    
    12    6    7 1    
    13    6   77 1    
    14    6   78 1    
    15    7    8 1    
    16    8    9 1    
    17    8   79 1    
    18    8   80 1    
    19    9   10 ar   
    20    9   14 ar   
    21   10   11 ar   
    22   10   81 1    
    23   11   12 ar   
    24   11   71 1    
    25   12   13 ar   
    26   12   82 1    
    27   13   14 ar   
    28   13   15 1    
    29   14   83 1    
    30   15   16 1    
    31   15   84 1    
    32   15   85 1    
    33   16   17 1    
    34   17   18 1    
    35   17   86 1    
    36   17   87 1    
    37   18   19 1    
    38   18   37 1    
    39   18   88 1    
    40   19   20 am   BACKBONE|DICT|INTERRES
    41   19   89 1    
    42   20   21 2    
    43   20   22 1    
    44   22   23 1    
    45   22   24 1    
    46   22   90 1    
    47   23   91 1    
    48   23   92 1    
    49   23   93 1    
    50   24   25 am   BACKBONE|DICT|INTERRES
    51   24   94 1    
    52   25   26 2    
    53   25   27 1    
    54   27   28 1    
    55   27   29 1    
    56   27   95 1    
    57   28   96 1    
    58   28   97 1    
    59   28   98 1    
    60   29   30 am   BACKBONE|DICT|INTERRES
    61   29   99 1    
    62   30   31 2    
    63   30   32 1    
    64   32   33 1    
    65   32   34 1    
    66   32  100 1    
    67   33  101 1    
    68   33  102 1    
    69   33  103 1    
    70   34   35 am   BACKBONE|DICT|INTERRES
    71   34  104 1    
    72   35   36 2    
    73   37   38 2    
    74   37   39 am   BACKBONE|DICT|INTERRES
    75   39   40 1    
    76   39  105 1    
    77   40   41 1    
    78   40   42 1    
    79   40  106 1    
    80   41  107 1    
    81   41  108 1    
    82   41  109 1    
    83   42   43 2    
    84   42   44 am   BACKBONE|DICT|INTERRES
    85   44   45 1    
    86   44  110 1    
    87   45   46 1    
    88   45   47 1    
    89   45  111 1    
    90   46  112 1    
    91   46  113 1    
    92   46  114 1    
    93   47   48 2    
    94   47   49 am   BACKBONE|DICT|INTERRES
    95   49   50 1    
    96   49  115 1    
    97   50   51 1    
    98   50   52 1    
    99   50  116 1    
   100   51  117 1    
   101   51  118 1    
   102   51  119 1    
   103   52   53 2    
   104   52   54 am   BACKBONE|DICT|INTERRES
   105   54   55 1    
   106   54  120 1    
   107   55   56 1    
   108   55   57 1    
   109   55  121 1    
   110   56  122 1    
   111   56  123 1    
   112   56  124 1    
   113   57   58 2    
   114   57   59 am   BACKBONE|DICT|INTERRES
   115   59   60 1    
   116   59  125 1    
   117   60   61 1    
   118   60   62 1    
   119   60  126 1    
   120   61  127 1    
   121   61  128 1    
   122   61  129 1    
   123   62   63 2    
   124   62   64 am   BACKBONE|DICT|INTERRES
   125   64   65 1    
   126   64  130 1    
   127   65   66 1    
   128   65   69 1    
   129   65  131 1    
   130   66   67 am   BACKBONE|DICT|INTERRES
   131   66   68 2    
   132   67  132 1    
   133   67  133 1    
   134   69   70 1    
   135   69  134 1    
   136   69  135 1    
   137   70   71 1    
   138   71  136 1    
   139   71  137 1    
@<TRIPOS>SUBSTRUCTURE
     1 UNK         1 GROUP             0       ****    0 ROOT    
