@<TRIPOS>MOLECULE
3R136
137   139    1
SMALL
USER_CHARGES


@<TRIPOS>ATOM
      1 CA         28.6255   21.6567   -0.6282 C.3       0 UNK        -0.1979 
      2 C          27.7434   21.5624    0.6134 C.2       0 UNK         0.4864 
      3 O          26.7433   20.8468    0.5840 O.2       0 UNK        -0.5359 
      4 N          28.0467   22.2611    1.7144 N.am      1 UNK        -0.4318 
      5 CA         29.1679   23.1825    1.9236 C.3       1 UNK         0.0824 
      6 C6         30.2289   22.5803    2.8870 C.3       12 UNK        -0.0944 
      7 S7         31.2022   21.2620    2.0760 S.3       12 UNK        -0.2672 
      8 C8         32.8648   22.0017    1.8850 C.3       12 UNK         0.0333 
      9 C9         32.8330   23.4349    1.3664 C.ar      12 UNK        -0.0807 
     10 C10        33.4054   24.4619    2.1224 C.ar      12 UNK        -0.0894 
     11 C11        33.3076   25.7930    1.7073 C.ar      12 UNK        -0.0804 
     12 C12        32.6398   26.0913    0.5157 C.ar      12 UNK        -0.0824 
     13 C13        32.0850   25.0701   -0.2619 C.ar      12 UNK        -0.0762 
     14 C14        32.2063   23.7420    0.1557 C.ar      12 UNK        -0.0782 
     15 C15        31.2971   25.3989   -1.5183 C.3       12 UNK         0.0230 
     16 S16        29.5301   25.4456   -1.1084 S.3       12 UNK        -0.2608 
     17 C17        28.7397   25.8957   -2.6920 C.3       12 UNK        -0.0989 
     18 CA         27.6434   26.9943   -2.5555 C.3       5 UNK         0.0716 
     19 N          26.7281   26.7421   -1.4449 N.am      5 UNK        -0.4135 
     20 C          25.6240   25.9886   -1.5210 C.2       4 UNK         0.5031 
     21 O          25.1968   25.5152   -2.5756 O.2       4 UNK        -0.5229 
     22 CA         24.8722   25.6644   -0.2130 C.3       4 UNK         0.0329 
     23 CB         25.0301   24.1763    0.1344 C.3       4 UNK        -0.2001 
     24 N          25.3089   26.4551    0.9384 N.am      4 UNK        -0.4303 
     25 C          25.0235   27.7496    1.1280 C.2       3 UNK         0.5044 
     26 O          24.2937   28.4039    0.3831 O.2       3 UNK        -0.5152 
     27 CA         25.6771   28.4443    2.3368 C.3       3 UNK         0.0319 
     28 CB         24.6711   28.5685    3.4920 C.3       3 UNK        -0.2001 
     29 N          26.9005   27.8025    2.8373 N.am      3 UNK        -0.4354 
     30 C          28.0224   27.5748    2.1388 C.2       2 UNK         0.4964 
     31 O          28.1537   27.8622    0.9482 O.2       2 UNK        -0.5047 
     32 CA         29.2033   26.9278    2.8846 C.3       2 UNK         0.0288 
     33 CB         29.0777   26.9751    4.4252 C.3       2 UNK        -0.2113 
     34 N          29.4643   25.5589    2.4268 N.am      2 UNK        -0.4145 
     35 C          28.6162   24.5190    2.4565 C.2       1 UNK         0.5006 
     36 O          27.4572   24.5851    2.8795 O.2       1 UNK        -0.5103 
     37 C          28.1747   28.4347   -2.4627 C.2       5 UNK         0.5055 
     38 O          27.5058   29.3555   -2.9349 O.2       5 UNK        -0.5220 
     39 N          29.3762   28.6026   -1.8972 N.am      6 UNK        -0.4450 
     40 CA         30.1290   29.8597   -1.8723 C.3       6 UNK         0.0367 
     41 CB         31.5863   29.5645   -1.4807 C.3       6 UNK        -0.1929 
     42 C          29.5477   30.9338   -0.9388 C.2       6 UNK         0.5070 
     43 O          29.7841   32.1180   -1.1789 O.2       6 UNK        -0.5237 
     44 N          28.8438   30.5073    0.1211 N.am      7 UNK        -0.4739 
     45 CA         28.2916   31.3335    1.2050 C.3       7 UNK         0.0276 
     46 CB         27.1522   32.2366    0.6886 C.3       7 UNK        -0.1927 
     47 C          29.3651   32.1014    2.0035 C.2       7 UNK         0.5013 
     48 O          29.0926   33.1849    2.5223 O.2       7 UNK        -0.5193 
     49 N          30.5649   31.5098    2.1046 N.am      8 UNK        -0.4253 
     50 CA         31.7148   32.0543    2.8330 C.3       8 UNK         0.0242 
     51 CB         32.9879   31.3198    2.3811 C.3       8 UNK        -0.2000 
     52 C          31.5662   31.9833    4.3636 C.2       8 UNK         0.4948 
     53 O          32.2567   32.7243    5.0649 O.2       8 UNK        -0.5275 
     54 N          30.6896   31.0914    4.8520 N.am      9 UNK        -0.4246 
     55 CA         30.3162   30.8203    6.2487 C.3       9 UNK         0.0261 
     56 CB         29.6965   32.0610    6.9205 C.3       9 UNK        -0.1959 
     57 C          31.4438   30.2263    7.1105 C.2       9 UNK         0.5033 
     58 O          31.2267   29.2059    7.7651 O.2       9 UNK        -0.5390 
     59 N          32.6336   30.8368    7.0782 N.am      10 UNK        -0.4215 
     60 CA         33.8455   30.4301    7.7974 C.3       10 UNK         0.0240 
     61 CB         34.7710   31.6539    7.9337 C.3       10 UNK        -0.1982 
     62 C          34.5515   29.2204    7.1466 C.2       10 UNK         0.4970 
     63 O          35.7709   29.2382    6.9687 O.2       10 UNK        -0.4916 
     64 N          33.7694   28.1952    6.7965 N.am      11 UNK        -0.4279 
     65 CA         34.2200   26.9476    6.1643 C.3       11 UNK         0.1003 
     66 C          34.7024   25.8659    7.1738 C.2       11 UNK         0.5709 
     67 N          34.5750   26.0649    8.4809 N.am      11 UNK        -0.7358 
     68 O          35.2178   24.8292    6.7623 O.2       11 UNK        -0.4999 
     69 C69        33.1386   26.3879    5.2038 C.3       12 UNK        -0.0954 
     70 S70        32.7897   27.5259    3.8194 S.3       12 UNK        -0.2268 
     71 C71        33.9269   26.9099    2.5369 C.3       12 UNK         0.0203 
     72 H72        28.3200   20.9191   -1.3698 H         1 UNK         0.0888 
     73 H73        28.5374   22.6414   -1.0848 H         1 UNK         0.0888 
     74 H74        29.6708   21.4677   -0.3916 H         1 UNK         0.0888 
     75 H75        27.3939   22.2448    2.4863 H         1 UNK         0.3017 
     76 H76        29.6411   23.4187    0.9734 H         1 UNK         0.0873 
     77 H77        30.9120   23.3419    3.2664 H         1 UNK         0.0745 
     78 H78        29.7462   22.1587    3.7706 H         1 UNK         0.0745 
     79 H79        33.4492   21.3866    1.1996 H         1 UNK         0.0705 
     80 H80        33.3728   21.9525    2.8494 H         1 UNK         0.0705 
     81 H81        33.9190   24.2215    3.0419 H         1 UNK         0.1334 
     82 H82        32.5473   27.1198    0.1987 H         1 UNK         0.1417 
     83 H83        31.7636   22.9506   -0.4339 H         1 UNK         0.1562 
     84 H84        31.4770   24.6454   -2.2868 H         1 UNK         0.0748 
     85 H85        31.6135   26.3563   -1.9341 H         1 UNK         0.0748 
     86 H86        28.2825   24.9880   -3.0890 H         1 UNK         0.0940 
     87 H87        29.4932   26.1833   -3.4281 H         1 UNK         0.0940 
     88 H88        27.0690   26.9773   -3.4846 H         1 UNK         0.0703 
     89 H89        27.0276   27.1056   -0.5457 H         1 UNK         0.3081 
     90 H90        23.8131   25.8651   -0.3880 H         1 UNK         0.0719 
     91 H91        24.6817   23.5399   -0.6803 H         1 UNK         0.0809 
     92 H92        26.0737   23.9256    0.3208 H         1 UNK         0.0809 
     93 H93        24.4566   23.9089    1.0220 H         1 UNK         0.0809 
     94 H94        25.9148   25.9945    1.6059 H         1 UNK         0.2990 
     95 H95        25.9387   29.4510    2.0108 H         1 UNK         0.0690 
     96 H96        25.0793   29.1578    4.3134 H         1 UNK         0.0788 
     97 H97        24.3873   27.5917    3.8859 H         1 UNK         0.0788 
     98 H98        23.7570   29.0656    3.1637 H         1 UNK         0.0788 
     99 H99        26.8822   27.4975    3.8000 H         1 UNK         0.2993 
    100 H100       30.0798   27.5140    2.6067 H         1 UNK         0.0949 
    101 H101       29.9828   26.5967    4.8987 H         1 UNK         0.0767 
    102 H102       28.9390   27.9967    4.7809 H         1 UNK         0.0767 
    103 H103       28.2459   26.3754    4.7961 H         1 UNK         0.0767 
    104 H104       30.3771   25.4149    2.0151 H         1 UNK         0.3013 
    105 H105       29.8111   27.7895   -1.4815 H         1 UNK         0.3121 
    106 H106       30.1246   30.2715   -2.8839 H         1 UNK         0.0774 
    107 H107       32.1880   30.4743   -1.5072 H         1 UNK         0.0815 
    108 H108       31.6568   29.1608   -0.4708 H         1 UNK         0.0815 
    109 H109       32.0494   28.8546   -2.1659 H         1 UNK         0.0815 
    110 H110       28.6904   29.5056    0.2181 H         1 UNK         0.2987 
    111 H111       27.8563   30.6399    1.9225 H         1 UNK         0.0949 
    112 H112       27.5215   33.0082    0.0127 H         1 UNK         0.0806 
    113 H113       26.3986   31.6560    0.1562 H         1 UNK         0.0806 
    114 H114       26.6475   32.7416    1.5131 H         1 UNK         0.0806 
    115 H115       30.7020   30.6335    1.6235 H         1 UNK         0.3010 
    116 H116       31.8165   33.1089    2.5673 H         1 UNK         0.0829 
    117 H117       33.1546   31.4365    1.3100 H         1 UNK         0.0813 
    118 H118       33.8687   31.7154    2.8889 H         1 UNK         0.0813 
    119 H119       32.9396   30.2530    2.5991 H         1 UNK         0.0813 
    120 H120       30.2182   30.5151    4.1709 H         1 UNK         0.3038 
    121 H121       29.5352   30.0599    6.1984 H         1 UNK         0.0769 
    122 H122       29.3365   31.8215    7.9220 H         1 UNK         0.0811 
    123 H123       28.8455   32.4349    6.3512 H         1 UNK         0.0811 
    124 H124       30.4142   32.8756    7.0218 H         1 UNK         0.0811 
    125 H125       32.7119   31.6404    6.4559 H         1 UNK         0.3204 
    126 H126       33.5570   30.1202    8.8039 H         1 UNK         0.0748 
    127 H127       34.2659   32.4786    8.4371 H         1 UNK         0.0771 
    128 H128       35.6580   31.4143    8.5218 H         1 UNK         0.0771 
    129 H129       35.1088   32.0123    6.9603 H         1 UNK         0.0771 
    130 H130       32.7799   28.2631    7.0113 H         1 UNK         0.2980 
    131 H131       35.0979   27.1770    5.5575 H         1 UNK         0.0545 
    132 H132       34.1553   26.9107    8.8313 H         1 UNK         0.3459 
    133 H133       34.8986   25.3573    9.1215 H         1 UNK         0.3459 
    134 H134       33.4347   25.4197    4.8047 H         1 UNK         0.0616 
    135 H135       32.2088   26.2124    5.7468 H         1 UNK         0.0616 
    136 H136       34.1972   27.7443    1.8880 H         1 UNK         0.0634 
    137 H137       34.8575   26.5728    2.9959 H         1 UNK         0.0634 
@<TRIPOS>BOND
     1    1    2 1    
     2    1   72 1    
     3    1   73 1    
     4    1   74 1    
     5    2    3 2    
     6    2    4 am   BACKBONE|DICT|INTERRES
     7    4    5 1    
     8    4   75 1    
     9    5    6 1    
    10    5   35 1    
    11    5   76 1    
    12    6    7 1    
    13    6   77 1    
    14    6   78 1    
    15    7    8 1    
    16    8    9 1    
    17    8   79 1    
    18    8   80 1    
    19    9   10 ar   
    20    9   14 ar   
    21   10   11 ar   
    22   10   81 1    
    23   11   12 ar   
    24   11   71 1    
    25   12   13 ar   
    26   12   82 1    
    27   13   14 ar   
    28   13   15 1    
    29   14   83 1    
    30   15   16 1    
    31   15   84 1    
    32   15   85 1    
    33   16   17 1    
    34   17   18 1    
    35   17   86 1    
    36   17   87 1    
    37   18   19 1    
    38   18   37 1    
    39   18   88 1    
    40   19   20 am   BACKBONE|DICT|INTERRES
    41   19   89 1    
    42   20   21 2    
    43   20   22 1    
    44   22   23 1    
    45   22   24 1    
    46   22   90 1    
    47   23   91 1    
    48   23   92 1    
    49   23   93 1    
    50   24   25 am   BACKBONE|DICT|INTERRES
    51   24   94 1    
    52   25   26 2    
    53   25   27 1    
    54   27   28 1    
    55   27   29 1    
    56   27   95 1    
    57   28   96 1    
    58   28   97 1    
    59   28   98 1    
    60   29   30 am   BACKBONE|DICT|INTERRES
    61   29   99 1    
    62   30   31 2    
    63   30   32 1    
    64   32   33 1    
    65   32   34 1    
    66   32  100 1    
    67   33  101 1    
    68   33  102 1    
    69   33  103 1    
    70   34   35 am   BACKBONE|DICT|INTERRES
    71   34  104 1    
    72   35   36 2    
    73   37   38 2    
    74   37   39 am   BACKBONE|DICT|INTERRES
    75   39   40 1    
    76   39  105 1    
    77   40   41 1    
    78   40   42 1    
    79   40  106 1    
    80   41  107 1    
    81   41  108 1    
    82   41  109 1    
    83   42   43 2    
    84   42   44 am   BACKBONE|DICT|INTERRES
    85   44   45 1    
    86   44  110 1    
    87   45   46 1    
    88   45   47 1    
    89   45  111 1    
    90   46  112 1    
    91   46  113 1    
    92   46  114 1    
    93   47   48 2    
    94   47   49 am   BACKBONE|DICT|INTERRES
    95   49   50 1    
    96   49  115 1    
    97   50   51 1    
    98   50   52 1    
    99   50  116 1    
   100   51  117 1    
   101   51  118 1    
   102   51  119 1    
   103   52   53 2    
   104   52   54 am   BACKBONE|DICT|INTERRES
   105   54   55 1    
   106   54  120 1    
   107   55   56 1    
   108   55   57 1    
   109   55  121 1    
   110   56  122 1    
   111   56  123 1    
   112   56  124 1    
   113   57   58 2    
   114   57   59 am   BACKBONE|DICT|INTERRES
   115   59   60 1    
   116   59  125 1    
   117   60   61 1    
   118   60   62 1    
   119   60  126 1    
   120   61  127 1    
   121   61  128 1    
   122   61  129 1    
   123   62   63 2    
   124   62   64 am   BACKBONE|DICT|INTERRES
   125   64   65 1    
   126   64  130 1    
   127   65   66 1    
   128   65   69 1    
   129   65  131 1    
   130   66   67 am   BACKBONE|DICT|INTERRES
   131   66   68 2    
   132   67  132 1    
   133   67  133 1    
   134   69   70 1    
   135   69  134 1    
   136   69  135 1    
   137   70   71 1    
   138   71  136 1    
   139   71  137 1    
@<TRIPOS>SUBSTRUCTURE
     1 UNK         1 GROUP             0       ****    0 ROOT    
