@<TRIPOS>MOLECULE
3R136
137   139    1
SMALL
USER_CHARGES


@<TRIPOS>ATOM
      1 CA         25.8643   18.5063    2.3393 C.3       0 UNK        -0.1979 
      2 C          26.9840   18.9979    1.4333 C.2       0 UNK         0.4864 
      3 O          27.2565   18.3723    0.4069 O.2       0 UNK        -0.5359 
      4 N          27.6353   20.1059    1.8108 N.am      1 UNK        -0.4318 
      5 CA         28.6909   20.7672    1.0359 C.3       1 UNK         0.0824 
      6 C6         29.7370   21.4399    1.9680 C.3       12 UNK        -0.0944 
      7 S7         31.4150   21.4111    1.2479 S.3       12 UNK        -0.2672 
      8 C8         32.4461   21.7401    2.7107 C.3       12 UNK         0.0333 
      9 C9         32.3607   23.1990    3.1303 C.ar      12 UNK        -0.0807 
     10 C10        33.2024   24.1486    2.5418 C.ar      12 UNK        -0.0894 
     11 C11        33.1234   25.4933    2.9154 C.ar      12 UNK        -0.0804 
     12 C12        32.1855   25.8843    3.8734 C.ar      12 UNK        -0.0824 
     13 C13        31.3339   24.9475    4.4641 C.ar      12 UNK        -0.0762 
     14 C14        31.4383   23.6014    4.1010 C.ar      12 UNK        -0.0782 
     15 C15        30.3017   25.3989    5.4890 C.3       12 UNK         0.0230 
     16 S16        28.5900   24.9872    5.0093 S.3       12 UNK        -0.2608 
     17 C17        28.4590   25.6219    3.2994 C.3       12 UNK        -0.0989 
     18 CA         28.7248   27.1371    3.1008 C.3       5 UNK         0.0716 
     19 N          28.8221   27.4471    1.6713 N.am      5 UNK        -0.4135 
     20 C          29.1670   28.6376    1.1566 C.2       4 UNK         0.5031 
     21 O          29.5417   29.5849    1.8414 O.2       4 UNK        -0.5229 
     22 CA         29.0313   28.8359   -0.3675 C.3       4 UNK         0.0329 
     23 CB         30.4101   28.7883   -1.0448 C.3       4 UNK        -0.2001 
     24 N          28.1400   27.8786   -1.0300 N.am      4 UNK        -0.4303 
     25 C          26.8411   27.6931   -0.7512 C.2       3 UNK         0.5044 
     26 O          26.2141   28.3647    0.0678 O.2       3 UNK        -0.5152 
     27 CA         26.1385   26.5143   -1.4505 C.3       3 UNK         0.0319 
     28 CB         25.3817   27.0053   -2.6948 C.3       3 UNK        -0.2001 
     29 N          27.0238   25.4024   -1.8274 N.am      3 UNK        -0.4354 
     30 C          27.8186   24.7166   -0.9920 C.2       2 UNK         0.4964 
     31 O          27.9674   24.9966    0.2000 O.2       2 UNK        -0.5047 
     32 CA         28.6308   23.5697   -1.6183 C.3       2 UNK         0.0288 
     33 CB         29.9334   24.1167   -2.2262 C.3       2 UNK        -0.2113 
     34 N          28.9694   22.5255   -0.6489 N.am      2 UNK        -0.4145 
     35 C          28.0918   21.7488    0.0004 C.2       1 UNK         0.5006 
     36 O          26.8733   21.7873   -0.1987 O.2       1 UNK        -0.5103 
     37 C          27.6882   28.0195    3.8390 C.2       5 UNK         0.5055 
     38 O          27.8668   28.2863    5.0289 O.2       5 UNK        -0.5220 
     39 N          26.6392   28.4774    3.1360 N.am      6 UNK        -0.4450 
     40 CA         25.6372   29.3981    3.6697 C.3       6 UNK         0.0367 
     41 CB         24.4013   29.4039    2.7548 C.3       6 UNK        -0.1929 
     42 C          26.2268   30.8106    3.8179 C.2       6 UNK         0.5070 
     43 O          26.5213   31.4564    2.8100 O.2       6 UNK        -0.5237 
     44 N          26.3831   31.2555    5.0721 N.am      7 UNK        -0.4739 
     45 CA         26.8910   32.5553    5.5362 C.3       7 UNK         0.0276 
     46 CB         26.0048   33.7191    5.0489 C.3       7 UNK        -0.1927 
     47 C          28.3757   32.8140    5.2234 C.2       7 UNK         0.5013 
     48 O          29.1496   33.0694    6.1464 O.2       7 UNK        -0.5193 
     49 N          28.7647   32.7265    3.9469 N.am      8 UNK        -0.4253 
     50 CA         30.1154   32.9835    3.4343 C.3       8 UNK         0.0242 
     51 CB         30.0062   33.3953    1.9541 C.3       8 UNK        -0.2000 
     52 C          31.0707   31.7890    3.6375 C.2       8 UNK         0.4948 
     53 O          31.8544   31.4740    2.7406 O.2       8 UNK        -0.5275 
     54 N          31.0042   31.1548    4.8168 N.am      9 UNK        -0.4246 
     55 CA         31.5987   29.8585    5.1696 C.3       9 UNK         0.0261 
     56 CB         31.1130   29.4603    6.5736 C.3       9 UNK        -0.1959 
     57 C          33.1329   29.7329    5.0607 C.2       9 UNK         0.5033 
     58 O          33.6509   28.6298    5.2333 O.2       9 UNK        -0.5390 
     59 N          33.8399   30.8293    4.7650 N.am      10 UNK        -0.4215 
     60 CA         35.2437   30.8130    4.3504 C.3       10 UNK         0.0240 
     61 CB         35.8280   32.2273    4.4998 C.3       10 UNK        -0.1982 
     62 C          35.4340   30.3010    2.9069 C.2       10 UNK         0.4970 
     63 O          36.5312   29.8458    2.5829 O.2       10 UNK        -0.4916 
     64 N          34.3877   30.4020    2.0709 N.am      11 UNK        -0.4279 
     65 CA         34.3678   30.0559    0.6379 C.3       11 UNK         0.1003 
     66 C          35.3021   30.9329   -0.2533 C.2       11 UNK         0.5709 
     67 N          35.7191   32.1134    0.1903 N.am      11 UNK        -0.7358 
     68 O          35.6308   30.5615   -1.3778 O.2       11 UNK        -0.4999 
     69 C69        34.5229   28.5302    0.3691 C.3       12 UNK        -0.0954 
     70 S70        33.1599   27.5459    1.0763 S.3       12 UNK        -0.2268 
     71 C71        34.0473   26.5271    2.2897 C.3       12 UNK         0.0203 
     72 H72        25.7417   19.1400    3.2176 H         1 UNK         0.0888 
     73 H73        24.9201   18.4950    1.7954 H         1 UNK         0.0888 
     74 H74        26.0744   17.4927    2.6798 H         1 UNK         0.0888 
     75 H75        27.3347   20.5936    2.6426 H         1 UNK         0.3017 
     76 H76        29.2028   19.9941    0.4582 H         1 UNK         0.0873 
     77 H77        29.7893   20.9027    2.9166 H         1 UNK         0.0745 
     78 H78        29.4575   22.4649    2.2218 H         1 UNK         0.0745 
     79 H79        32.1519   21.0826    3.5302 H         1 UNK         0.0705 
     80 H80        33.4807   21.4857    2.4752 H         1 UNK         0.0705 
     81 H81        33.9159   23.8395    1.7900 H         1 UNK         0.1334 
     82 H82        32.1163   26.9255    4.1493 H         1 UNK         0.1417 
     83 H83        30.7819   22.8728    4.5571 H         1 UNK         0.1562 
     84 H84        30.3665   26.4741    5.6625 H         1 UNK         0.0748 
     85 H85        30.5219   24.9243    6.4461 H         1 UNK         0.0748 
     86 H86        27.4674   25.3633    2.9228 H         1 UNK         0.0940 
     87 H87        29.1563   25.0461    2.6883 H         1 UNK         0.0940 
     88 H88        29.6993   27.3762    3.5266 H         1 UNK         0.0703 
     89 H89        28.5346   26.7060    1.0388 H         1 UNK         0.3081 
     90 H90        28.6098   29.8317   -0.5196 H         1 UNK         0.0719 
     91 H91        30.8590   27.7968   -0.9740 H         1 UNK         0.0809 
     92 H92        30.3460   29.0556   -2.0996 H         1 UNK         0.0809 
     93 H93        31.0993   29.4917   -0.5749 H         1 UNK         0.0809 
     94 H94        28.5630   27.2683   -1.7134 H         1 UNK         0.2990 
     95 H95        25.4083   26.1157   -0.7432 H         1 UNK         0.0690 
     96 H96        24.7843   26.2081   -3.1377 H         1 UNK         0.0788 
     97 H97        26.0625   27.3815   -3.4595 H         1 UNK         0.0788 
     98 H98        24.6970   27.8160   -2.4408 H         1 UNK         0.0788 
     99 H99        26.9869   25.1166   -2.7958 H         1 UNK         0.2993 
    100 H100       28.0324   23.1097   -2.4076 H         1 UNK         0.0949 
    101 H101       29.7285   24.8711   -2.9871 H         1 UNK         0.0767 
    102 H102       30.5673   24.5807   -1.4686 H         1 UNK         0.0767 
    103 H103       30.5101   23.3257   -2.7064 H         1 UNK         0.0767 
    104 H104       29.9436   22.4486   -0.3880 H         1 UNK         0.3013 
    105 H105       26.5903   28.2916    2.1396 H         1 UNK         0.3121 
    106 H106       25.3219   29.0340    4.6502 H         1 UNK         0.0774 
    107 H107       23.6230   30.0527    3.1582 H         1 UNK         0.0815 
    108 H108       24.6392   29.7668    1.7541 H         1 UNK         0.0815 
    109 H109       23.9744   28.4058    2.6557 H         1 UNK         0.0815 
    110 H110       26.1614   30.6059    5.8151 H         1 UNK         0.2987 
    111 H111       26.8095   32.5270    6.6243 H         1 UNK         0.0949 
    112 H112       26.0224   33.8252    3.9639 H         1 UNK         0.0806 
    113 H113       24.9676   33.5811    5.3541 H         1 UNK         0.0806 
    114 H114       26.3423   34.6668    5.4706 H         1 UNK         0.0806 
    115 H115       28.0689   32.4040    3.2771 H         1 UNK         0.3010 
    116 H116       30.5409   33.8258    3.9838 H         1 UNK         0.0829 
    117 H117       29.3464   34.2535    1.8266 H         1 UNK         0.0813 
    118 H118       30.9799   33.6744    1.5493 H         1 UNK         0.0813 
    119 H119       29.6195   32.5786    1.3422 H         1 UNK         0.0813 
    120 H120       30.3756   31.5574    5.5032 H         1 UNK         0.3038 
    121 H121       31.1904   29.1382    4.4585 H         1 UNK         0.0769 
    122 H122       31.4372   30.1774    7.3287 H         1 UNK         0.0811 
    123 H123       30.0250   29.3971    6.6127 H         1 UNK         0.0811 
    124 H124       31.4997   28.4827    6.8647 H         1 UNK         0.0811 
    125 H125       33.3296   31.6895    4.6257 H         1 UNK         0.3204 
    126 H126       35.7963   30.1434    5.0132 H         1 UNK         0.0748 
    127 H127       36.8815   32.2464    4.2167 H         1 UNK         0.0771 
    128 H128       35.3076   32.9500    3.8701 H         1 UNK         0.0771 
    129 H129       35.7657   32.5745    5.5315 H         1 UNK         0.0771 
    130 H130       33.5121   30.7901    2.4180 H         1 UNK         0.2980 
    131 H131       33.3668   30.3313    0.3043 H         1 UNK         0.0545 
    132 H132       36.3129   32.6786   -0.3957 H         1 UNK         0.3459 
    133 H133       35.4431   32.4437    1.1003 H         1 UNK         0.3459 
    134 H134       35.4840   28.1682    0.7363 H         1 UNK         0.0616 
    135 H135       34.5170   28.3265   -0.7028 H         1 UNK         0.0616 
    136 H136       34.8909   26.0367    1.8016 H         1 UNK         0.0634 
    137 H137       34.4661   27.1702    3.0648 H         1 UNK         0.0634 
@<TRIPOS>BOND
     1    1    2 1    
     2    1   72 1    
     3    1   73 1    
     4    1   74 1    
     5    2    3 2    
     6    2    4 am   BACKBONE|DICT|INTERRES
     7    4    5 1    
     8    4   75 1    
     9    5    6 1    
    10    5   35 1    
    11    5   76 1    
    12    6    7 1    
    13    6   77 1    
    14    6   78 1    
    15    7    8 1    
    16    8    9 1    
    17    8   79 1    
    18    8   80 1    
    19    9   10 ar   
    20    9   14 ar   
    21   10   11 ar   
    22   10   81 1    
    23   11   12 ar   
    24   11   71 1    
    25   12   13 ar   
    26   12   82 1    
    27   13   14 ar   
    28   13   15 1    
    29   14   83 1    
    30   15   16 1    
    31   15   84 1    
    32   15   85 1    
    33   16   17 1    
    34   17   18 1    
    35   17   86 1    
    36   17   87 1    
    37   18   19 1    
    38   18   37 1    
    39   18   88 1    
    40   19   20 am   BACKBONE|DICT|INTERRES
    41   19   89 1    
    42   20   21 2    
    43   20   22 1    
    44   22   23 1    
    45   22   24 1    
    46   22   90 1    
    47   23   91 1    
    48   23   92 1    
    49   23   93 1    
    50   24   25 am   BACKBONE|DICT|INTERRES
    51   24   94 1    
    52   25   26 2    
    53   25   27 1    
    54   27   28 1    
    55   27   29 1    
    56   27   95 1    
    57   28   96 1    
    58   28   97 1    
    59   28   98 1    
    60   29   30 am   BACKBONE|DICT|INTERRES
    61   29   99 1    
    62   30   31 2    
    63   30   32 1    
    64   32   33 1    
    65   32   34 1    
    66   32  100 1    
    67   33  101 1    
    68   33  102 1    
    69   33  103 1    
    70   34   35 am   BACKBONE|DICT|INTERRES
    71   34  104 1    
    72   35   36 2    
    73   37   38 2    
    74   37   39 am   BACKBONE|DICT|INTERRES
    75   39   40 1    
    76   39  105 1    
    77   40   41 1    
    78   40   42 1    
    79   40  106 1    
    80   41  107 1    
    81   41  108 1    
    82   41  109 1    
    83   42   43 2    
    84   42   44 am   BACKBONE|DICT|INTERRES
    85   44   45 1    
    86   44  110 1    
    87   45   46 1    
    88   45   47 1    
    89   45  111 1    
    90   46  112 1    
    91   46  113 1    
    92   46  114 1    
    93   47   48 2    
    94   47   49 am   BACKBONE|DICT|INTERRES
    95   49   50 1    
    96   49  115 1    
    97   50   51 1    
    98   50   52 1    
    99   50  116 1    
   100   51  117 1    
   101   51  118 1    
   102   51  119 1    
   103   52   53 2    
   104   52   54 am   BACKBONE|DICT|INTERRES
   105   54   55 1    
   106   54  120 1    
   107   55   56 1    
   108   55   57 1    
   109   55  121 1    
   110   56  122 1    
   111   56  123 1    
   112   56  124 1    
   113   57   58 2    
   114   57   59 am   BACKBONE|DICT|INTERRES
   115   59   60 1    
   116   59  125 1    
   117   60   61 1    
   118   60   62 1    
   119   60  126 1    
   120   61  127 1    
   121   61  128 1    
   122   61  129 1    
   123   62   63 2    
   124   62   64 am   BACKBONE|DICT|INTERRES
   125   64   65 1    
   126   64  130 1    
   127   65   66 1    
   128   65   69 1    
   129   65  131 1    
   130   66   67 am   BACKBONE|DICT|INTERRES
   131   66   68 2    
   132   67  132 1    
   133   67  133 1    
   134   69   70 1    
   135   69  134 1    
   136   69  135 1    
   137   70   71 1    
   138   71  136 1    
   139   71  137 1    
@<TRIPOS>SUBSTRUCTURE
     1 UNK         1 GROUP             0       ****    0 ROOT    
