@<TRIPOS>MOLECULE
3R136
137   139    1
SMALL
USER_CHARGES


@<TRIPOS>ATOM
      1 CA         25.3088   20.3744    1.4228 C.3       0 UNK        -0.1979 
      2 C          25.9245   21.7275    1.1055 C.2       0 UNK         0.4864 
      3 O          25.2877   22.5469    0.4406 O.2       0 UNK        -0.5359 
      4 N          27.1510   21.9789    1.5881 N.am      1 UNK        -0.4318 
      5 CA         27.9479   23.1916    1.3428 C.3       1 UNK         0.0824 
      6 C6         29.3352   23.1230    2.0198 C.3       12 UNK        -0.0944 
      7 S7         30.3962   21.8668    1.2325 S.3       12 UNK        -0.2672 
      8 C8         32.0339   22.2623    1.9345 C.3       12 UNK         0.0333 
      9 C9         32.4509   23.7129    1.7133 C.ar      12 UNK        -0.0807 
     10 C10        32.8030   24.5118    2.8053 C.ar      12 UNK        -0.0894 
     11 C11        33.1833   25.8444    2.6206 C.ar      12 UNK        -0.0804 
     12 C12        33.1993   26.3833    1.3309 C.ar      12 UNK        -0.0824 
     13 C13        32.8349   25.5992    0.2314 C.ar      12 UNK        -0.0762 
     14 C14        32.4772   24.2613    0.4268 C.ar      12 UNK        -0.0782 
     15 C15        32.8164   26.2012   -1.1666 C.3       12 UNK         0.0230 
     16 S16        31.4431   27.3795   -1.3799 S.3       12 UNK        -0.2608 
     17 C17        29.9869   26.3210   -1.0791 C.3       12 UNK        -0.0989 
     18 CA         28.7343   26.7853   -1.8655 C.3       5 UNK         0.0716 
     19 N          27.6863   25.7638   -1.8639 N.am      5 UNK        -0.4135 
     20 C          27.1065   25.2585   -2.9591 C.2       4 UNK         0.5031 
     21 O          27.4340   25.5494   -4.1105 O.2       4 UNK        -0.5229 
     22 CA         25.9671   24.2478   -2.7470 C.3       4 UNK         0.0329 
     23 CB         26.5210   22.8147   -2.6904 C.3       4 UNK        -0.2001 
     24 N          25.1506   24.5033   -1.5567 N.am      4 UNK        -0.4303 
     25 C          24.2914   25.5263   -1.4288 C.2       3 UNK         0.5044 
     26 O          24.1585   26.4165   -2.2686 O.2       3 UNK        -0.5152 
     27 CA         23.4196   25.5565   -0.1644 C.3       3 UNK         0.0319 
     28 CB         22.2512   24.5652   -0.2944 C.3       3 UNK        -0.2001 
     29 N          24.2020   25.2253    1.0256 N.am      3 UNK        -0.4354 
     30 C          24.5389   26.0964    1.9876 C.2       2 UNK         0.4964 
     31 O          24.1514   27.2641    2.0242 O.2       2 UNK        -0.5047 
     32 CA         25.4806   25.5955    3.1016 C.3       2 UNK         0.0288 
     33 CB         24.6726   25.1972    4.3473 C.3       2 UNK        -0.2113 
     34 N          26.3364   24.4724    2.7065 N.am      2 UNK        -0.4145 
     35 C          27.2374   24.5075    1.7144 C.2       1 UNK         0.5006 
     36 O          27.4814   25.5173    1.0526 O.2       1 UNK        -0.5103 
     37 C          28.1440   28.0969   -1.3185 C.2       5 UNK         0.5055 
     38 O          28.2336   29.1260   -1.9903 O.2       5 UNK        -0.5220 
     39 N          27.5290   28.0230   -0.1260 N.am      6 UNK        -0.4450 
     40 CA         26.8949   29.1180    0.6190 C.3       6 UNK         0.0367 
     41 CB         25.6285   29.6123   -0.1118 C.3       6 UNK        -0.1929 
     42 C          27.8768   30.2556    0.9680 C.2       6 UNK         0.5070 
     43 O          27.5090   31.4309    0.9143 O.2       6 UNK        -0.5237 
     44 N          29.1201   29.8830    1.3032 N.am      7 UNK        -0.4739 
     45 CA         30.2033   30.8002    1.6572 C.3       7 UNK         0.0276 
     46 CB         31.5284   30.0196    1.7061 C.3       7 UNK        -0.1927 
     47 C          29.9451   31.5051    2.9994 C.2       7 UNK         0.5013 
     48 O          29.5514   30.8491    3.9664 O.2       7 UNK        -0.5193 
     49 N          30.2106   32.8169    3.0381 N.am      8 UNK        -0.4253 
     50 CA         30.1277   33.6484    4.2445 C.3       8 UNK         0.0242 
     51 CB         29.7548   35.0831    3.8322 C.3       8 UNK        -0.2000 
     52 C          31.4321   33.6460    5.0661 C.2       8 UNK         0.4948 
     53 O          31.4359   34.1582    6.1869 O.2       8 UNK        -0.5275 
     54 N          32.5166   33.1047    4.4937 N.am      9 UNK        -0.4246 
     55 CA         33.8381   32.9871    5.1107 C.3       9 UNK         0.0261 
     56 CB         34.8529   32.6000    4.0202 C.3       9 UNK        -0.1959 
     57 C          33.8666   31.9586    6.2549 C.2       9 UNK         0.5033 
     58 O          33.0231   31.0602    6.3059 O.2       9 UNK        -0.5390 
     59 N          34.8810   32.0811    7.1220 N.am      10 UNK        -0.4215 
     60 CA         35.1379   31.1807    8.2531 C.3       10 UNK         0.0240 
     61 CB         36.1978   31.8157    9.1691 C.3       10 UNK        -0.1982 
     62 C          35.5622   29.7542    7.8487 C.2       10 UNK         0.4970 
     63 O          35.4639   28.8492    8.6780 O.2       10 UNK        -0.4916 
     64 N          36.0203   29.5790    6.6003 N.am      11 UNK        -0.4279 
     65 CA         36.4330   28.3001    5.9969 C.3       11 UNK         0.1003 
     66 C          37.7803   27.7268    6.5383 C.2       11 UNK         0.5709 
     67 N          38.5926   28.5068    7.2426 N.am      11 UNK        -0.7358 
     68 O          38.1153   26.5698    6.2959 O.2       11 UNK        -0.4999 
     69 C69        35.2739   27.2566    5.9776 C.3       12 UNK        -0.0954 
     70 S70        35.2166   26.2792    4.4385 S.3       12 UNK        -0.2268 
     71 C71        33.5569   26.6983    3.8220 C.3       12 UNK         0.0203 
     72 H72        25.9729   19.7545    2.0247 H         1 UNK         0.0888 
     73 H73        24.3764   20.5069    1.9707 H         1 UNK         0.0888 
     74 H74        25.0885   19.8398    0.4993 H         1 UNK         0.0888 
     75 H75        27.6226   21.2605    2.1197 H         1 UNK         0.3017 
     76 H76        28.1075   23.2430    0.2645 H         1 UNK         0.0873 
     77 H77        29.8381   24.0891    1.9452 H         1 UNK         0.0745 
     78 H78        29.2450   22.9048    3.0856 H         1 UNK         0.0745 
     79 H79        32.0202   22.0212    2.9986 H         1 UNK         0.0705 
     80 H80        32.7790   21.6076    1.4810 H         1 UNK         0.0705 
     81 H81        32.7862   24.0984    3.8047 H         1 UNK         0.1334 
     82 H82        33.4799   27.4169    1.1805 H         1 UNK         0.1417 
     83 H83        32.1971   23.6478   -0.4189 H         1 UNK         0.1562 
     84 H84        32.7439   25.4225   -1.9276 H         1 UNK         0.0748 
     85 H85        33.7589   26.7195   -1.3489 H         1 UNK         0.0748 
     86 H86        29.8014   26.2720   -0.0048 H         1 UNK         0.0940 
     87 H87        30.2403   25.3041   -1.3827 H         1 UNK         0.0940 
     88 H88        29.0492   26.9824   -2.8927 H         1 UNK         0.0703 
     89 H89        27.3338   25.4921   -0.9541 H         1 UNK         0.3081 
     90 H90        25.3095   24.3157   -3.6165 H         1 UNK         0.0719 
     91 H91        27.1858   22.6684   -1.8396 H         1 UNK         0.0809 
     92 H92        25.7172   22.0820   -2.6150 H         1 UNK         0.0809 
     93 H93        27.0891   22.5800   -3.5917 H         1 UNK         0.0809 
     94 H94        25.1754   23.7886   -0.8304 H         1 UNK         0.2990 
     95 H95        22.9991   26.5608   -0.0798 H         1 UNK         0.0690 
     96 H96        21.5862   24.6257    0.5672 H         1 UNK         0.0788 
     97 H97        22.5999   23.5345   -0.3750 H         1 UNK         0.0788 
     98 H98        21.6533   24.7796   -1.1813 H         1 UNK         0.0788 
     99 H99        24.5762   24.2823    1.0664 H         1 UNK         0.2993 
    100 H100       26.1343   26.4293    3.3668 H         1 UNK         0.0949 
    101 H101       24.0442   26.0226    4.6856 H         1 UNK         0.0767 
    102 H102       24.0167   24.3486    4.1484 H         1 UNK         0.0767 
    103 H103       25.3271   24.9305    5.1774 H         1 UNK         0.0767 
    104 H104       26.1912   23.5970    3.1883 H         1 UNK         0.3013 
    105 H105       27.5258   27.1218    0.3519 H         1 UNK         0.3121 
    106 H106       26.5774   28.6928    1.5721 H         1 UNK         0.0774 
    107 H107       25.0769   30.3247    0.5025 H         1 UNK         0.0815 
    108 H108       25.8698   30.1097   -1.0515 H         1 UNK         0.0815 
    109 H109       24.9521   28.7862   -0.3326 H         1 UNK         0.0815 
    110 H110       29.3314   28.8969    1.3389 H         1 UNK         0.2987 
    111 H111       30.2737   31.5514    0.8672 H         1 UNK         0.0949 
    112 H112       31.5039   29.2283    2.4569 H         1 UNK         0.0806 
    113 H113       31.7541   29.5612    0.7434 H         1 UNK         0.0806 
    114 H114       32.3638   30.6761    1.9524 H         1 UNK         0.0806 
    115 H115       30.5108   33.2812    2.1921 H         1 UNK         0.3010 
    116 H116       29.3361   33.2657    4.8927 H         1 UNK         0.0829 
    117 H117       28.8071   35.1074    3.2938 H         1 UNK         0.0813 
    118 H118       29.6436   35.7251    4.7072 H         1 UNK         0.0813 
    119 H119       30.5166   35.5325    3.1938 H         1 UNK         0.0813 
    120 H120       32.4060   32.6822    3.5855 H         1 UNK         0.3038 
    121 H121       34.1093   33.9643    5.5164 H         1 UNK         0.0769 
    122 H122       34.8589   33.3270    3.2076 H         1 UNK         0.0811 
    123 H123       34.6323   31.6209    3.5921 H         1 UNK         0.0811 
    124 H124       35.8676   32.5607    4.4182 H         1 UNK         0.0811 
    125 H125       35.5296   32.8467    7.0018 H         1 UNK         0.3204 
    126 H126       34.2093   31.0876    8.8205 H         1 UNK         0.0748 
    127 H127       35.8695   32.7856    9.5435 H         1 UNK         0.0771 
    128 H128       36.3917   31.1860   10.0389 H         1 UNK         0.0771 
    129 H129       37.1477   31.9582    8.6522 H         1 UNK         0.0771 
    130 H130       36.0906   30.3868    6.0008 H         1 UNK         0.2980 
    131 H131       36.6538   28.5678    4.9631 H         1 UNK         0.0545 
    132 H132       39.4652   28.1319    7.5800 H         1 UNK         0.3459 
    133 H133       38.3406   29.4606    7.4438 H         1 UNK         0.3459 
    134 H134       34.3128   27.7612    6.0887 H         1 UNK         0.0616 
    135 H135       35.3385   26.5761    6.8287 H         1 UNK         0.0616 
    136 H136       32.8233   26.5423    4.6145 H         1 UNK         0.0634 
    137 H137       33.5236   27.7598    3.5707 H         1 UNK         0.0634 
@<TRIPOS>BOND
     1    1    2 1    
     2    1   72 1    
     3    1   73 1    
     4    1   74 1    
     5    2    3 2    
     6    2    4 am   BACKBONE|DICT|INTERRES
     7    4    5 1    
     8    4   75 1    
     9    5    6 1    
    10    5   35 1    
    11    5   76 1    
    12    6    7 1    
    13    6   77 1    
    14    6   78 1    
    15    7    8 1    
    16    8    9 1    
    17    8   79 1    
    18    8   80 1    
    19    9   10 ar   
    20    9   14 ar   
    21   10   11 ar   
    22   10   81 1    
    23   11   12 ar   
    24   11   71 1    
    25   12   13 ar   
    26   12   82 1    
    27   13   14 ar   
    28   13   15 1    
    29   14   83 1    
    30   15   16 1    
    31   15   84 1    
    32   15   85 1    
    33   16   17 1    
    34   17   18 1    
    35   17   86 1    
    36   17   87 1    
    37   18   19 1    
    38   18   37 1    
    39   18   88 1    
    40   19   20 am   BACKBONE|DICT|INTERRES
    41   19   89 1    
    42   20   21 2    
    43   20   22 1    
    44   22   23 1    
    45   22   24 1    
    46   22   90 1    
    47   23   91 1    
    48   23   92 1    
    49   23   93 1    
    50   24   25 am   BACKBONE|DICT|INTERRES
    51   24   94 1    
    52   25   26 2    
    53   25   27 1    
    54   27   28 1    
    55   27   29 1    
    56   27   95 1    
    57   28   96 1    
    58   28   97 1    
    59   28   98 1    
    60   29   30 am   BACKBONE|DICT|INTERRES
    61   29   99 1    
    62   30   31 2    
    63   30   32 1    
    64   32   33 1    
    65   32   34 1    
    66   32  100 1    
    67   33  101 1    
    68   33  102 1    
    69   33  103 1    
    70   34   35 am   BACKBONE|DICT|INTERRES
    71   34  104 1    
    72   35   36 2    
    73   37   38 2    
    74   37   39 am   BACKBONE|DICT|INTERRES
    75   39   40 1    
    76   39  105 1    
    77   40   41 1    
    78   40   42 1    
    79   40  106 1    
    80   41  107 1    
    81   41  108 1    
    82   41  109 1    
    83   42   43 2    
    84   42   44 am   BACKBONE|DICT|INTERRES
    85   44   45 1    
    86   44  110 1    
    87   45   46 1    
    88   45   47 1    
    89   45  111 1    
    90   46  112 1    
    91   46  113 1    
    92   46  114 1    
    93   47   48 2    
    94   47   49 am   BACKBONE|DICT|INTERRES
    95   49   50 1    
    96   49  115 1    
    97   50   51 1    
    98   50   52 1    
    99   50  116 1    
   100   51  117 1    
   101   51  118 1    
   102   51  119 1    
   103   52   53 2    
   104   52   54 am   BACKBONE|DICT|INTERRES
   105   54   55 1    
   106   54  120 1    
   107   55   56 1    
   108   55   57 1    
   109   55  121 1    
   110   56  122 1    
   111   56  123 1    
   112   56  124 1    
   113   57   58 2    
   114   57   59 am   BACKBONE|DICT|INTERRES
   115   59   60 1    
   116   59  125 1    
   117   60   61 1    
   118   60   62 1    
   119   60  126 1    
   120   61  127 1    
   121   61  128 1    
   122   61  129 1    
   123   62   63 2    
   124   62   64 am   BACKBONE|DICT|INTERRES
   125   64   65 1    
   126   64  130 1    
   127   65   66 1    
   128   65   69 1    
   129   65  131 1    
   130   66   67 am   BACKBONE|DICT|INTERRES
   131   66   68 2    
   132   67  132 1    
   133   67  133 1    
   134   69   70 1    
   135   69  134 1    
   136   69  135 1    
   137   70   71 1    
   138   71  136 1    
   139   71  137 1    
@<TRIPOS>SUBSTRUCTURE
     1 UNK         1 GROUP             0       ****    0 ROOT    
