@<TRIPOS>MOLECULE
3R136
137   139    1
SMALL
USER_CHARGES


@<TRIPOS>ATOM
      1 CA         26.4351   25.7760    4.5571 C.3       0 UNK        -0.1979 
      2 C          26.6676   24.4736    3.8063 C.2       0 UNK         0.4864 
      3 O          25.9619   23.4935    4.0561 O.2       0 UNK        -0.5359 
      4 N          27.6377   24.4482    2.8818 N.am      1 UNK        -0.4318 
      5 CA         27.8983   23.3412    1.9556 C.3       1 UNK         0.0824 
      6 C6         29.3284   23.4113    1.3626 C.3       12 UNK        -0.0944 
      7 S7         30.6048   23.1539    2.6419 S.3       12 UNK        -0.2672 
      8 C8         32.1369   23.3295    1.6726 C.3       12 UNK         0.0333 
      9 C9         32.3897   24.7741    1.2657 C.ar      12 UNK        -0.0807 
     10 C10        32.8957   25.6871    2.1964 C.ar      12 UNK        -0.0894 
     11 C11        33.1008   27.0266    1.8475 C.ar      12 UNK        -0.0804 
     12 C12        32.8181   27.4365    0.5403 C.ar      12 UNK        -0.0824 
     13 C13        32.3332   26.5298   -0.4056 C.ar      12 UNK        -0.0762 
     14 C14        32.1171   25.1993   -0.0374 C.ar      12 UNK        -0.0782 
     15 C15        32.0500   26.9955   -1.8258 C.3       12 UNK         0.0230 
     16 S16        30.6215   28.1190   -1.8969 S.3       12 UNK        -0.2608 
     17 C17        29.2459   26.9628   -1.5873 C.3       12 UNK        -0.0989 
     18 CA         27.9321   27.7113   -1.2232 C.3       5 UNK         0.0716 
     19 N          26.7504   27.0373   -1.7615 N.am      5 UNK        -0.4135 
     20 C          26.3764   27.1170   -3.0456 C.2       4 UNK         0.5031 
     21 O          26.9484   27.8266   -3.8751 O.2       4 UNK        -0.5229 
     22 CA         25.2016   26.2490   -3.5263 C.3       4 UNK         0.0329 
     23 CB         25.7316   25.0004   -4.2516 C.3       4 UNK        -0.2001 
     24 N          24.2850   25.8207   -2.4730 N.am      4 UNK        -0.4303 
     25 C          23.3697   26.5946   -1.8736 C.2       3 UNK         0.5044 
     26 O          23.2456   27.8003   -2.0903 O.2       3 UNK        -0.5152 
     27 CA         22.4037   25.8976   -0.8937 C.3       3 UNK         0.0319 
     28 CB         21.0032   25.7739   -1.5169 C.3       3 UNK        -0.2001 
     29 N          22.8678   24.5626   -0.4979 N.am      3 UNK        -0.4354 
     30 C          23.8315   24.3472    0.4061 C.2       2 UNK         0.4964 
     31 O          24.3129   25.2456    1.0985 O.2       2 UNK        -0.5047 
     32 CA         24.3293   22.8951    0.5612 C.3       2 UNK         0.0288 
     33 CB         24.3943   22.1192   -0.7752 C.3       2 UNK        -0.2113 
     34 N          25.6142   22.8396    1.2670 N.am      2 UNK        -0.4145 
     35 C          26.8014   23.3245    0.8689 C.2       1 UNK         0.5006 
     36 O          27.0288   23.7813   -0.2549 O.2       1 UNK        -0.5103 
     37 C          27.7880   27.9621    0.2888 C.2       5 UNK         0.5055 
     38 O          26.7785   27.5899    0.8912 O.2       5 UNK        -0.5220 
     39 N          28.8101   28.6135    0.8578 N.am      6 UNK        -0.4450 
     40 CA         28.9638   28.9168    2.2817 C.3       6 UNK         0.0367 
     41 CB         29.8546   30.1684    2.4150 C.3       6 UNK        -0.1929 
     42 C          29.5280   27.7089    3.0582 C.2       6 UNK         0.5070 
     43 O          29.4724   26.5814    2.5686 O.2       6 UNK        -0.5237 
     44 N          30.0454   27.9528    4.2669 N.am      7 UNK        -0.4739 
     45 CA         30.7179   26.9711    5.1154 C.3       7 UNK         0.0276 
     46 CB         29.6893   26.1011    5.8604 C.3       7 UNK        -0.1927 
     47 C          31.6422   27.6992    6.0978 C.2       7 UNK         0.5013 
     48 O          31.5065   28.9125    6.2805 O.2       7 UNK        -0.5193 
     49 N          32.5464   26.9344    6.7254 N.am      8 UNK        -0.4253 
     50 CA         33.5107   27.3694    7.7421 C.3       8 UNK         0.0242 
     51 CB         32.7782   27.7309    9.0563 C.3       8 UNK        -0.2000 
     52 C          34.4570   28.4698    7.2186 C.2       8 UNK         0.4948 
     53 O          34.9562   28.3535    6.0990 O.2       8 UNK        -0.5275 
     54 N          34.7031   29.5054    8.0301 N.am      9 UNK        -0.4246 
     55 CA         35.5993   30.6202    7.7151 C.3       9 UNK         0.0261 
     56 CB         36.0348   31.2896    9.0299 C.3       9 UNK        -0.1959 
     57 C          34.9967   31.6642    6.7562 C.2       9 UNK         0.5033 
     58 O          35.7382   32.5326    6.2937 O.2       9 UNK        -0.5390 
     59 N          33.6850   31.5930    6.4775 N.am      10 UNK        -0.4215 
     60 CA         32.9390   32.5888    5.6963 C.3       10 UNK         0.0240 
     61 CB         31.4407   32.2510    5.7290 C.3       10 UNK        -0.1982 
     62 C          33.4184   32.7605    4.2435 C.2       10 UNK         0.4970 
     63 O          33.2686   33.8518    3.6926 O.2       10 UNK        -0.4916 
     64 N          33.9919   31.7009    3.6608 N.am      11 UNK        -0.4279 
     65 CA         34.6375   31.7226    2.3404 C.3       11 UNK         0.1003 
     66 C          36.1243   32.1887    2.3554 C.2       11 UNK         0.5709 
     67 N          36.7171   32.5221    3.4969 N.am      11 UNK        -0.7358 
     68 O          36.7505   32.2737    1.3014 O.2       11 UNK        -0.4999 
     69 C69        34.4206   30.3895    1.5787 C.3       12 UNK        -0.0954 
     70 S70        35.0946   28.9158    2.4260 S.3       12 UNK        -0.2268 
     71 C71        33.5796   28.0213    2.9022 C.3       12 UNK         0.0203 
     72 H72        27.0721   26.5776    4.1868 H         1 UNK         0.0888 
     73 H73        26.6308   25.6407    5.6202 H         1 UNK         0.0888 
     74 H74        25.3993   26.0923    4.4376 H         1 UNK         0.0888 
     75 H75        28.2234   25.2707    2.7344 H         1 UNK         0.3017 
     76 H76        27.8198   22.4016    2.5072 H         1 UNK         0.0873 
     77 H77        29.4641   22.6492    0.5930 H         1 UNK         0.0745 
     78 H78        29.4939   24.3761    0.8804 H         1 UNK         0.0745 
     79 H79        32.9748   22.9722    2.2731 H         1 UNK         0.0705 
     80 H80        32.0910   22.6795    0.7974 H         1 UNK         0.0705 
     81 H81        33.1050   25.3523    3.2027 H         1 UNK         0.1334 
     82 H82        32.9679   28.4628    0.2445 H         1 UNK         0.1417 
     83 H83        31.7305   24.4956   -0.7619 H         1 UNK         0.1562 
     84 H84        31.8797   26.1488   -2.4927 H         1 UNK         0.0748 
     85 H85        32.9274   27.5167   -2.2115 H         1 UNK         0.0748 
     86 H86        29.5165   26.2399   -0.8150 H         1 UNK         0.0940 
     87 H87        29.1213   26.3780   -2.5001 H         1 UNK         0.0940 
     88 H88        27.9513   28.7071   -1.6729 H         1 UNK         0.0703 
     89 H89        26.2249   26.4805   -1.0990 H         1 UNK         0.3081 
     90 H90        24.6340   26.8436   -4.2457 H         1 UNK         0.0719 
     91 H91        26.2959   24.3526   -3.5788 H         1 UNK         0.0809 
     92 H92        24.9192   24.4143   -4.6816 H         1 UNK         0.0809 
     93 H93        26.3968   25.2765   -5.0711 H         1 UNK         0.0809 
     94 H94        24.3182   24.8455   -2.2175 H         1 UNK         0.2990 
     95 H95        22.3258   26.5274   -0.0047 H         1 UNK         0.0690 
     96 H96        20.2950   25.3306   -0.8166 H         1 UNK         0.0788 
     97 H97        21.0138   25.1608   -2.4191 H         1 UNK         0.0788 
     98 H98        20.6112   26.7536   -1.7938 H         1 UNK         0.0788 
     99 H99        22.4861   23.7768   -1.0055 H         1 UNK         0.2993 
    100 H100       23.6086   22.3929    1.2083 H         1 UNK         0.0949 
    101 H101       23.4012   21.9635   -1.1973 H         1 UNK         0.0767 
    102 H102       24.9929   22.6395   -1.5238 H         1 UNK         0.0767 
    103 H103       24.8322   21.1311   -0.6330 H         1 UNK         0.0767 
    104 H104       25.5444   22.6264    2.2575 H         1 UNK         0.3013 
    105 H105       29.6127   28.8072    0.2740 H         1 UNK         0.3121 
    106 H106       27.9808   29.1439    2.6995 H         1 UNK         0.0774 
    107 H107       29.4838   30.9851    1.7953 H         1 UNK         0.0815 
    108 H108       30.8839   29.9666    2.1162 H         1 UNK         0.0815 
    109 H109       29.8718   30.5393    3.4393 H         1 UNK         0.0815 
    110 H110       30.0912   28.8990    4.6245 H         1 UNK         0.2987 
    111 H111       31.3381   26.3292    4.4882 H         1 UNK         0.0949 
    112 H112       28.9436   26.7081    6.3746 H         1 UNK         0.0806 
    113 H113       29.1758   25.4355    5.1694 H         1 UNK         0.0806 
    114 H114       30.1649   25.4647    6.6074 H         1 UNK         0.0806 
    115 H115       32.5940   25.9553    6.4806 H         1 UNK         0.3010 
    116 H116       34.1460   26.5065    7.9475 H         1 UNK         0.0829 
    117 H117       32.1248   26.9179    9.3736 H         1 UNK         0.0813 
    118 H118       33.4808   27.9022    9.8728 H         1 UNK         0.0813 
    119 H119       32.1597   28.6233    8.9510 H         1 UNK         0.0813 
    120 H120       34.2489   29.5278    8.9321 H         1 UNK         0.3038 
    121 H121       36.4913   30.2188    7.2289 H         1 UNK         0.0769 
    122 H122       35.1866   31.7155    9.5675 H         1 UNK         0.0811 
    123 H123       36.7405   32.1002    8.8418 H         1 UNK         0.0811 
    124 H124       36.5318   30.5801    9.6918 H         1 UNK         0.0811 
    125 H125       33.1509   30.8234    6.8592 H         1 UNK         0.3204 
    126 H126       33.0772   33.5519    6.1923 H         1 UNK         0.0748 
    127 H127       31.0659   32.1915    6.7510 H         1 UNK         0.0771 
    128 H128       30.8559   33.0140    5.2132 H         1 UNK         0.0771 
    129 H129       31.2360   31.2994    5.2403 H         1 UNK         0.0771 
    130 H130       34.1042   30.8504    4.1930 H         1 UNK         0.2980 
    131 H131       34.1305   32.4821    1.7424 H         1 UNK         0.0545 
    132 H132       36.2245   32.4888    4.3834 H         1 UNK         0.3459 
    133 H133       37.6764   32.8282    3.4747 H         1 UNK         0.3459 
    134 H134       33.3502   30.2626    1.4199 H         1 UNK         0.0616 
    135 H135       34.8586   30.4399    0.5804 H         1 UNK         0.0616 
    136 H136       32.7818   28.7271    3.1341 H         1 UNK         0.0634 
    137 H137       33.7938   27.4963    3.8334 H         1 UNK         0.0634 
@<TRIPOS>BOND
     1    1    2 1    
     2    1   72 1    
     3    1   73 1    
     4    1   74 1    
     5    2    3 2    
     6    2    4 am   BACKBONE|DICT|INTERRES
     7    4    5 1    
     8    4   75 1    
     9    5    6 1    
    10    5   35 1    
    11    5   76 1    
    12    6    7 1    
    13    6   77 1    
    14    6   78 1    
    15    7    8 1    
    16    8    9 1    
    17    8   79 1    
    18    8   80 1    
    19    9   10 ar   
    20    9   14 ar   
    21   10   11 ar   
    22   10   81 1    
    23   11   12 ar   
    24   11   71 1    
    25   12   13 ar   
    26   12   82 1    
    27   13   14 ar   
    28   13   15 1    
    29   14   83 1    
    30   15   16 1    
    31   15   84 1    
    32   15   85 1    
    33   16   17 1    
    34   17   18 1    
    35   17   86 1    
    36   17   87 1    
    37   18   19 1    
    38   18   37 1    
    39   18   88 1    
    40   19   20 am   BACKBONE|DICT|INTERRES
    41   19   89 1    
    42   20   21 2    
    43   20   22 1    
    44   22   23 1    
    45   22   24 1    
    46   22   90 1    
    47   23   91 1    
    48   23   92 1    
    49   23   93 1    
    50   24   25 am   BACKBONE|DICT|INTERRES
    51   24   94 1    
    52   25   26 2    
    53   25   27 1    
    54   27   28 1    
    55   27   29 1    
    56   27   95 1    
    57   28   96 1    
    58   28   97 1    
    59   28   98 1    
    60   29   30 am   BACKBONE|DICT|INTERRES
    61   29   99 1    
    62   30   31 2    
    63   30   32 1    
    64   32   33 1    
    65   32   34 1    
    66   32  100 1    
    67   33  101 1    
    68   33  102 1    
    69   33  103 1    
    70   34   35 am   BACKBONE|DICT|INTERRES
    71   34  104 1    
    72   35   36 2    
    73   37   38 2    
    74   37   39 am   BACKBONE|DICT|INTERRES
    75   39   40 1    
    76   39  105 1    
    77   40   41 1    
    78   40   42 1    
    79   40  106 1    
    80   41  107 1    
    81   41  108 1    
    82   41  109 1    
    83   42   43 2    
    84   42   44 am   BACKBONE|DICT|INTERRES
    85   44   45 1    
    86   44  110 1    
    87   45   46 1    
    88   45   47 1    
    89   45  111 1    
    90   46  112 1    
    91   46  113 1    
    92   46  114 1    
    93   47   48 2    
    94   47   49 am   BACKBONE|DICT|INTERRES
    95   49   50 1    
    96   49  115 1    
    97   50   51 1    
    98   50   52 1    
    99   50  116 1    
   100   51  117 1    
   101   51  118 1    
   102   51  119 1    
   103   52   53 2    
   104   52   54 am   BACKBONE|DICT|INTERRES
   105   54   55 1    
   106   54  120 1    
   107   55   56 1    
   108   55   57 1    
   109   55  121 1    
   110   56  122 1    
   111   56  123 1    
   112   56  124 1    
   113   57   58 2    
   114   57   59 am   BACKBONE|DICT|INTERRES
   115   59   60 1    
   116   59  125 1    
   117   60   61 1    
   118   60   62 1    
   119   60  126 1    
   120   61  127 1    
   121   61  128 1    
   122   61  129 1    
   123   62   63 2    
   124   62   64 am   BACKBONE|DICT|INTERRES
   125   64   65 1    
   126   64  130 1    
   127   65   66 1    
   128   65   69 1    
   129   65  131 1    
   130   66   67 am   BACKBONE|DICT|INTERRES
   131   66   68 2    
   132   67  132 1    
   133   67  133 1    
   134   69   70 1    
   135   69  134 1    
   136   69  135 1    
   137   70   71 1    
   138   71  136 1    
   139   71  137 1    
@<TRIPOS>SUBSTRUCTURE
     1 UNK         1 GROUP             0       ****    0 ROOT    
