@<TRIPOS>MOLECULE
3R136
137   139    1
SMALL
USER_CHARGES


@<TRIPOS>ATOM
      1 CA         32.9715   22.8272   -4.0753 C.3       0 UNK        -0.1979 
      2 C          32.2121   23.6018   -3.0079 C.2       0 UNK         0.4864 
      3 O          32.7613   24.5387   -2.4275 O.2       0 UNK        -0.5359 
      4 N          30.9586   23.2163   -2.7492 N.am      1 UNK        -0.4318 
      5 CA         30.0396   23.8464   -1.8034 C.3       1 UNK         0.0824 
      6 C6         30.4016   23.5495   -0.3202 C.3       12 UNK        -0.0944 
      7 S7         29.8151   24.8565    0.8061 S.3       12 UNK        -0.2672 
      8 C8         30.2559   24.1329    2.4139 C.3       12 UNK         0.0333 
      9 C9         30.1967   25.1953    3.4972 C.ar      12 UNK        -0.0807 
     10 C10        31.2934   26.0363    3.7006 C.ar      12 UNK        -0.0894 
     11 C11        31.2332   27.0675    4.6404 C.ar      12 UNK        -0.0804 
     12 C12        30.0659   27.2479    5.3874 C.ar      12 UNK        -0.0824 
     13 C13        28.9663   26.4023    5.2058 C.ar      12 UNK        -0.0762 
     14 C14        29.0426   25.3669    4.2674 C.ar      12 UNK        -0.0782 
     15 C15        27.6948   26.6311    6.0163 C.3       12 UNK         0.0230 
     16 S16        26.2029   26.8614    4.9884 S.3       12 UNK        -0.2608 
     17 C17        26.7362   28.0981    3.7520 C.3       12 UNK        -0.0989 
     18 CA         26.7621   27.4793    2.3262 C.3       5 UNK         0.0716 
     19 N          25.4516   27.0197    1.8476 N.am      5 UNK        -0.4135 
     20 C          24.3502   27.7645    1.6565 C.2       4 UNK         0.5031 
     21 O          24.2845   28.9667    1.9167 O.2       4 UNK        -0.5229 
     22 CA         23.1075   27.0809    1.0438 C.3       4 UNK         0.0329 
     23 CB         22.7455   27.7307   -0.3036 C.3       4 UNK        -0.2001 
     24 N          23.2621   25.6400    0.8342 N.am      4 UNK        -0.4303 
     25 C          23.2429   24.7032    1.7921 C.2       3 UNK         0.5044 
     26 O          22.9678   24.9346    2.9692 O.2       3 UNK        -0.5152 
     27 CA         23.6325   23.2702    1.3736 C.3       3 UNK         0.0319 
     28 CB         22.3789   22.3888    1.2501 C.3       3 UNK        -0.2001 
     29 N          24.4089   23.1786    0.1267 N.am      3 UNK        -0.4354 
     30 C          25.6011   23.7508   -0.0927 C.2       2 UNK         0.4964 
     31 O          26.1797   24.4729    0.7247 O.2       2 UNK        -0.5047 
     32 CA         26.2167   23.5395   -1.4793 C.3       2 UNK         0.0288 
     33 CB         25.5130   24.4149   -2.5333 C.3       2 UNK        -0.2113 
     34 N          27.6297   23.8919   -1.4013 N.am      2 UNK        -0.4145 
     35 C          28.6086   23.4034   -2.1659 C.2       1 UNK         0.5006 
     36 O          28.4206   22.6240   -3.1064 O.2       1 UNK        -0.5103 
     37 C          27.4356   28.3690    1.2636 C.2       5 UNK         0.5055 
     38 O          27.8920   29.4755    1.5588 O.2       5 UNK        -0.5220 
     39 N          27.4580   27.8609    0.0237 N.am      6 UNK        -0.4450 
     40 CA         28.0101   28.5134   -1.1624 C.3       6 UNK         0.0367 
     41 CB         27.3262   27.9225   -2.4100 C.3       6 UNK        -0.1929 
     42 C          29.5446   28.3885   -1.2182 C.2       6 UNK         0.5070 
     43 O          30.0771   27.7287   -2.1121 O.2       6 UNK        -0.5237 
     44 N          30.2273   29.0218   -0.2608 N.am      7 UNK        -0.4739 
     45 CA         31.6825   29.0963   -0.1651 C.3       7 UNK         0.0276 
     46 CB         32.1992   27.9466    0.7143 C.3       7 UNK        -0.1927 
     47 C          32.0771   30.4582    0.4180 C.2       7 UNK         0.5013 
     48 O          31.3103   31.0382    1.1903 O.2       7 UNK        -0.5193 
     49 N          33.2694   30.9378    0.0434 N.am      8 UNK        -0.4253 
     50 CA         33.8142   32.2334    0.4652 C.3       8 UNK         0.0242 
     51 CB         34.6651   32.8049   -0.6830 C.3       8 UNK        -0.2000 
     52 C          34.6434   32.1627    1.7620 C.2       8 UNK         0.4948 
     53 O          35.0203   33.2140    2.2830 O.2       8 UNK        -0.5275 
     54 N          34.9492   30.9490    2.2424 N.am      9 UNK        -0.4246 
     55 CA         35.7512   30.7018    3.4427 C.3       9 UNK         0.0261 
     56 CB         36.1252   29.2114    3.5004 C.3       9 UNK        -0.1959 
     57 C          35.0281   31.1277    4.7318 C.2       9 UNK         0.5033 
     58 O          33.8060   30.9938    4.8294 O.2       9 UNK        -0.5390 
     59 N          35.8034   31.5932    5.7179 N.am      10 UNK        -0.4215 
     60 CA         35.3250   31.9958    7.0414 C.3       10 UNK         0.0240 
     61 CB         36.2877   33.0498    7.6215 C.3       10 UNK        -0.1982 
     62 C          35.1656   30.7698    7.9591 C.2       10 UNK         0.4970 
     63 O          35.9453   30.5970    8.8980 O.2       10 UNK        -0.4916 
     64 N          34.1752   29.9249    7.6497 N.am      11 UNK        -0.4279 
     65 CA         33.8638   28.6885    8.3900 C.3       11 UNK         0.1003 
     66 C          33.2706   28.9075    9.8131 C.2       11 UNK         0.5709 
     67 N          32.7977   30.0982   10.1631 N.am      11 UNK        -0.7358 
     68 O          33.2451   27.9782   10.6167 O.2       11 UNK        -0.4999 
     69 C69        32.9648   27.7261    7.5699 C.3       12 UNK        -0.0954 
     70 S70        33.6692   27.3091    5.9392 S.3       12 UNK        -0.2268 
     71 C71        32.4186   28.0041    4.8152 C.3       12 UNK         0.0203 
     72 H72        33.8715   22.3851   -3.6489 H         1 UNK         0.0888 
     73 H73        32.3697   22.0251   -4.5025 H         1 UNK         0.0888 
     74 H74        33.2690   23.4951   -4.8832 H         1 UNK         0.0888 
     75 H75        30.5237   22.4757   -3.2878 H         1 UNK         0.3017 
     76 H76        30.0920   24.9234   -1.9808 H         1 UNK         0.0873 
     77 H77        31.4843   23.4969   -0.1965 H         1 UNK         0.0745 
     78 H78        30.0184   22.5788    0.0012 H         1 UNK         0.0745 
     79 H79        31.2606   23.7100    2.3661 H         1 UNK         0.0705 
     80 H80        29.5783   23.3084    2.6411 H         1 UNK         0.0705 
     81 H81        32.1873   25.9042    3.1062 H         1 UNK         0.1334 
     82 H82        30.0098   28.0559    6.1036 H         1 UNK         0.1417 
     83 H83        28.1888   24.7213    4.1105 H         1 UNK         0.1562 
     84 H84        27.8012   27.5032    6.6633 H         1 UNK         0.0748 
     85 H85        27.5381   25.7780    6.6776 H         1 UNK         0.0748 
     86 H86        27.7200   28.4842    4.0225 H         1 UNK         0.0940 
     87 H87        26.0656   28.9567    3.7984 H         1 UNK         0.0940 
     88 H88        27.3851   26.5852    2.3728 H         1 UNK         0.0703 
     89 H89        25.4253   26.0412    1.5784 H         1 UNK         0.3081 
     90 H90        22.2781   27.2407    1.7360 H         1 UNK         0.0719 
     91 H91        23.5461   27.6158   -1.0356 H         1 UNK         0.0809 
     92 H92        21.8388   27.2955   -0.7243 H         1 UNK         0.0809 
     93 H93        22.5626   28.7999   -0.1873 H         1 UNK         0.0809 
     94 H94        23.4803   25.3430   -0.1052 H         1 UNK         0.2990 
     95 H95        24.2564   22.8659    2.1735 H         1 UNK         0.0690 
     96 H96        22.6413   21.3480    1.0595 H         1 UNK         0.0788 
     97 H97        21.7266   22.7256    0.4432 H         1 UNK         0.0788 
     98 H98        21.7943   22.4086    2.1711 H         1 UNK         0.0788 
     99 H99        24.0001   22.6213   -0.6104 H         1 UNK         0.2993 
    100 H100       26.1213   22.4842   -1.7448 H         1 UNK         0.0949 
    101 H101       25.9879   24.3202   -3.5101 H         1 UNK         0.0767 
    102 H102       24.4696   24.1219   -2.6553 H         1 UNK         0.0767 
    103 H103       25.5250   25.4695   -2.2571 H         1 UNK         0.0767 
    104 H104       27.8769   24.4382   -0.5827 H         1 UNK         0.3013 
    105 H105       27.0870   26.9319   -0.1092 H         1 UNK         0.3121 
    106 H106       27.7689   29.5780   -1.1234 H         1 UNK         0.0774 
    107 H107       27.6756   28.4192   -3.3161 H         1 UNK         0.0815 
    108 H108       27.5379   26.8585   -2.5221 H         1 UNK         0.0815 
    109 H109       26.2443   28.0501   -2.3698 H         1 UNK         0.0815 
    110 H110       29.7175   29.5484    0.4438 H         1 UNK         0.2987 
    111 H111       32.1188   29.0120   -1.1632 H         1 UNK         0.0949 
    112 H112       33.2803   27.9976    0.8467 H         1 UNK         0.0806 
    113 H113       31.7408   27.9755    1.7022 H         1 UNK         0.0806 
    114 H114       31.9729   26.9774    0.2692 H         1 UNK         0.0806 
    115 H115       33.8377   30.3966   -0.5935 H         1 UNK         0.3010 
    116 H116       32.9913   32.9277    0.6501 H         1 UNK         0.0829 
    117 H117       34.0772   32.9190   -1.5940 H         1 UNK         0.0813 
    118 H118       35.0555   33.7913   -0.4282 H         1 UNK         0.0813 
    119 H119       35.5194   32.1662   -0.9110 H         1 UNK         0.0813 
    120 H120       34.5692   30.1414    1.7739 H         1 UNK         0.3038 
    121 H121       36.6708   31.2844    3.3533 H         1 UNK         0.0769 
    122 H122       36.7204   28.9887    4.3871 H         1 UNK         0.0811 
    123 H123       36.7165   28.9166    2.6333 H         1 UNK         0.0811 
    124 H124       35.2423   28.5735    3.5357 H         1 UNK         0.0811 
    125 H125       36.8026   31.6305    5.5735 H         1 UNK         0.3204 
    126 H126       34.3434   32.4650    6.9435 H         1 UNK         0.0748 
    127 H127       35.9563   33.3805    8.6069 H         1 UNK         0.0771 
    128 H128       37.3007   32.6603    7.7315 H         1 UNK         0.0771 
    129 H129       36.3364   33.9337    6.9850 H         1 UNK         0.0771 
    130 H130       33.6222   30.1143    6.8227 H         1 UNK         0.2980 
    131 H131       34.8142   28.1752    8.5486 H         1 UNK         0.0545 
    132 H132       32.4205   30.2264   11.0888 H         1 UNK         0.3459 
    133 H133       32.8106   30.8662    9.5119 H         1 UNK         0.3459 
    134 H134       32.8213   26.7870    8.1075 H         1 UNK         0.0616 
    135 H135       31.9707   28.1569    7.4472 H         1 UNK         0.0616 
    136 H136       32.8836   28.1898    3.8469 H         1 UNK         0.0634 
    137 H137       32.0881   28.9776    5.1794 H         1 UNK         0.0634 
@<TRIPOS>BOND
     1    1    2 1    
     2    1   72 1    
     3    1   73 1    
     4    1   74 1    
     5    2    3 2    
     6    2    4 am   BACKBONE|DICT|INTERRES
     7    4    5 1    
     8    4   75 1    
     9    5    6 1    
    10    5   35 1    
    11    5   76 1    
    12    6    7 1    
    13    6   77 1    
    14    6   78 1    
    15    7    8 1    
    16    8    9 1    
    17    8   79 1    
    18    8   80 1    
    19    9   10 ar   
    20    9   14 ar   
    21   10   11 ar   
    22   10   81 1    
    23   11   12 ar   
    24   11   71 1    
    25   12   13 ar   
    26   12   82 1    
    27   13   14 ar   
    28   13   15 1    
    29   14   83 1    
    30   15   16 1    
    31   15   84 1    
    32   15   85 1    
    33   16   17 1    
    34   17   18 1    
    35   17   86 1    
    36   17   87 1    
    37   18   19 1    
    38   18   37 1    
    39   18   88 1    
    40   19   20 am   BACKBONE|DICT|INTERRES
    41   19   89 1    
    42   20   21 2    
    43   20   22 1    
    44   22   23 1    
    45   22   24 1    
    46   22   90 1    
    47   23   91 1    
    48   23   92 1    
    49   23   93 1    
    50   24   25 am   BACKBONE|DICT|INTERRES
    51   24   94 1    
    52   25   26 2    
    53   25   27 1    
    54   27   28 1    
    55   27   29 1    
    56   27   95 1    
    57   28   96 1    
    58   28   97 1    
    59   28   98 1    
    60   29   30 am   BACKBONE|DICT|INTERRES
    61   29   99 1    
    62   30   31 2    
    63   30   32 1    
    64   32   33 1    
    65   32   34 1    
    66   32  100 1    
    67   33  101 1    
    68   33  102 1    
    69   33  103 1    
    70   34   35 am   BACKBONE|DICT|INTERRES
    71   34  104 1    
    72   35   36 2    
    73   37   38 2    
    74   37   39 am   BACKBONE|DICT|INTERRES
    75   39   40 1    
    76   39  105 1    
    77   40   41 1    
    78   40   42 1    
    79   40  106 1    
    80   41  107 1    
    81   41  108 1    
    82   41  109 1    
    83   42   43 2    
    84   42   44 am   BACKBONE|DICT|INTERRES
    85   44   45 1    
    86   44  110 1    
    87   45   46 1    
    88   45   47 1    
    89   45  111 1    
    90   46  112 1    
    91   46  113 1    
    92   46  114 1    
    93   47   48 2    
    94   47   49 am   BACKBONE|DICT|INTERRES
    95   49   50 1    
    96   49  115 1    
    97   50   51 1    
    98   50   52 1    
    99   50  116 1    
   100   51  117 1    
   101   51  118 1    
   102   51  119 1    
   103   52   53 2    
   104   52   54 am   BACKBONE|DICT|INTERRES
   105   54   55 1    
   106   54  120 1    
   107   55   56 1    
   108   55   57 1    
   109   55  121 1    
   110   56  122 1    
   111   56  123 1    
   112   56  124 1    
   113   57   58 2    
   114   57   59 am   BACKBONE|DICT|INTERRES
   115   59   60 1    
   116   59  125 1    
   117   60   61 1    
   118   60   62 1    
   119   60  126 1    
   120   61  127 1    
   121   61  128 1    
   122   61  129 1    
   123   62   63 2    
   124   62   64 am   BACKBONE|DICT|INTERRES
   125   64   65 1    
   126   64  130 1    
   127   65   66 1    
   128   65   69 1    
   129   65  131 1    
   130   66   67 am   BACKBONE|DICT|INTERRES
   131   66   68 2    
   132   67  132 1    
   133   67  133 1    
   134   69   70 1    
   135   69  134 1    
   136   69  135 1    
   137   70   71 1    
   138   71  136 1    
   139   71  137 1    
@<TRIPOS>SUBSTRUCTURE
     1 UNK         1 GROUP             0       ****    0 ROOT    
