@<TRIPOS>MOLECULE
3R136
137   139    1
SMALL
USER_CHARGES


@<TRIPOS>ATOM
      1 CA         26.3913   17.7374    0.6400 C.3       0 UNK        -0.1979 
      2 C          27.2868   18.8105    0.0382 C.2       0 UNK         0.4864 
      3 O          27.7458   18.6588   -1.0954 O.2       0 UNK        -0.5359 
      4 N          27.5453   19.8874    0.7911 N.am      1 UNK        -0.4318 
      5 CA         28.3476   21.0397    0.3648 C.3       1 UNK         0.0824 
      6 C6         28.7555   21.9344    1.5610 C.3       12 UNK        -0.0944 
      7 S7         29.6769   21.0080    2.8378 S.3       12 UNK        -0.2672 
      8 C8         31.3806   21.6248    2.6200 C.3       12 UNK         0.0333 
      9 C9         31.5203   23.1086    2.9419 C.ar      12 UNK        -0.0807 
     10 C10        32.1531   23.9676    2.0376 C.ar      12 UNK        -0.0894 
     11 C11        32.2763   25.3351    2.3068 C.ar      12 UNK        -0.0804 
     12 C12        31.7372   25.8385    3.4991 C.ar      12 UNK        -0.0824 
     13 C13        31.1038   24.9916    4.4131 C.ar      12 UNK        -0.0762 
     14 C14        31.0207   23.6250    4.1408 C.ar      12 UNK        -0.0782 
     15 C15        30.4941   25.5604    5.6873 C.3       12 UNK         0.0230 
     16 S16        28.6846   25.3179    5.8011 S.3       12 UNK        -0.2608 
     17 C17        28.0717   25.6646    4.1133 C.3       12 UNK        -0.0989 
     18 CA         28.3366   27.1083    3.6140 C.3       5 UNK         0.0716 
     19 N          28.4578   27.1394    2.1517 N.am      5 UNK        -0.4135 
     20 C          28.8268   28.1988    1.4188 C.2       4 UNK         0.5031 
     21 O          29.1872   29.2678    1.9072 O.2       4 UNK        -0.5229 
     22 CA         28.7057   28.0834   -0.1122 C.3       4 UNK         0.0329 
     23 CB         30.0786   27.8154   -0.7440 C.3       4 UNK        -0.2001 
     24 N          27.7567   27.0770   -0.6045 N.am      4 UNK        -0.4303 
     25 C          26.4591   26.9638   -0.2941 C.2       3 UNK         0.5044 
     26 O          25.9046   27.6605    0.5567 O.2       3 UNK        -0.5152 
     27 CA         25.6306   25.8875   -1.0254 C.3       3 UNK         0.0319 
     28 CB         24.8139   26.5252   -2.1656 C.3       3 UNK        -0.2001 
     29 N          26.3621   24.7018   -1.5084 N.am      3 UNK        -0.4354 
     30 C          27.3259   24.6080   -2.4360 C.2       2 UNK         0.4964 
     31 O          27.8459   25.5842   -2.9782 O.2       2 UNK        -0.5047 
     32 CA         27.7987   23.1851   -2.8014 C.3       2 UNK         0.0288 
     33 CB         28.8598   23.1851   -3.9189 C.3       2 UNK        -0.2113 
     34 N          28.3270   22.4370   -1.6555 N.am      2 UNK        -0.4145 
     35 C          27.5888   21.8633   -0.6960 C.2       1 UNK         0.5006 
     36 O          26.3621   21.9850   -0.6183 O.2       1 UNK        -0.5103 
     37 C          27.3047   28.1198    4.1727 C.2       5 UNK         0.5055 
     38 O          27.4080   28.5000    5.3391 O.2       5 UNK        -0.5220 
     39 N          26.3659   28.5936    3.3360 N.am      6 UNK        -0.4450 
     40 CA         25.4637   29.7084    3.6478 C.3       6 UNK         0.0367 
     41 CB         24.4050   29.8272    2.5401 C.3       6 UNK        -0.1929 
     42 C          26.1876   31.0582    3.8436 C.2       6 UNK         0.5070 
     43 O          25.6263   31.9493    4.4814 O.2       6 UNK        -0.5237 
     44 N          27.4113   31.1865    3.3141 N.am      7 UNK        -0.4739 
     45 CA         28.3003   32.3337    3.4802 C.3       7 UNK         0.0276 
     46 CB         28.2860   33.1791    2.1926 C.3       7 UNK        -0.1927 
     47 C          29.7013   31.8163    3.8428 C.2       7 UNK         0.5013 
     48 O          30.6809   32.1873    3.1940 O.2       7 UNK        -0.5193 
     49 N          29.7611   30.9501    4.8689 N.am      8 UNK        -0.4253 
     50 CA         30.9241   30.1595    5.3027 C.3       8 UNK         0.0242 
     51 CB         30.5811   29.4300    6.6118 C.3       8 UNK        -0.2000 
     52 C          32.2512   30.9204    5.4713 C.2       8 UNK         0.4948 
     53 O          33.3077   30.3157    5.2943 O.2       8 UNK        -0.5275 
     54 N          32.1887   32.2270    5.7652 N.am      9 UNK        -0.4246 
     55 CA         33.3386   33.1358    5.8078 C.3       9 UNK         0.0261 
     56 CB         32.8651   34.5334    6.2378 C.3       9 UNK        -0.1959 
     57 C          34.1214   33.2170    4.4813 C.2       9 UNK         0.5033 
     58 O          35.3325   33.4391    4.5171 O.2       9 UNK        -0.5390 
     59 N          33.4428   32.9995    3.3436 N.am      10 UNK        -0.4215 
     60 CA         34.0588   32.9196    2.0157 C.3       10 UNK         0.0240 
     61 CB         32.9641   33.0234    0.9409 C.3       10 UNK        -0.1982 
     62 C          34.8935   31.6418    1.8058 C.2       10 UNK         0.4970 
     63 O          35.7747   31.6424    0.9454 O.2       10 UNK        -0.4916 
     64 N          34.6108   30.5877    2.5820 N.am      11 UNK        -0.4279 
     65 CA         35.3288   29.3046    2.5621 C.3       11 UNK         0.1003 
     66 C          36.5782   29.2796    3.4909 C.2       11 UNK         0.5709 
     67 N          36.8851   30.3362    4.2361 N.am      11 UNK        -0.7358 
     68 O          37.3004   28.2857    3.5208 O.2       11 UNK        -0.4999 
     69 C69        34.3706   28.1181    2.8536 C.3       12 UNK        -0.0954 
     70 S70        33.0256   28.0049    1.6232 S.3       12 UNK        -0.2268 
     71 C71        32.9900   26.2116    1.2722 C.3       12 UNK         0.0203 
     72 H72        26.0701   17.9938    1.6495 H         1 UNK         0.0888 
     73 H73        25.5017   17.6034    0.0251 H         1 UNK         0.0888 
     74 H74        26.9222   16.7869    0.6846 H         1 UNK         0.0888 
     75 H75        27.1370   19.9615    1.7115 H         1 UNK         0.3017 
     76 H76        29.2591   20.6523   -0.0963 H         1 UNK         0.0873 
     77 H77        29.3573   22.7789    1.2206 H         1 UNK         0.0745 
     78 H78        27.8726   22.3676    2.0355 H         1 UNK         0.0745 
     79 H79        31.7014   21.4136    1.5987 H         1 UNK         0.0705 
     80 H80        32.0448   21.0608    3.2760 H         1 UNK         0.0705 
     81 H81        32.5533   23.5705    1.1143 H         1 UNK         0.1334 
     82 H82        31.7983   26.8921    3.7269 H         1 UNK         0.1417 
     83 H83        30.5303   22.9691    4.8475 H         1 UNK         0.1562 
     84 H84        30.7106   26.6249    5.7740 H         1 UNK         0.0748 
     85 H85        30.9658   25.0877    6.5497 H         1 UNK         0.0748 
     86 H86        27.0064   25.4285    4.0750 H         1 UNK         0.0940 
     87 H87        28.5425   24.9382    3.4491 H         1 UNK         0.0940 
     88 H88        29.3063   27.4368    3.9894 H         1 UNK         0.0703 
     89 H89        28.1631   26.3113    1.6572 H         1 UNK         0.3081 
     90 H90        28.3517   29.0521   -0.4700 H         1 UNK         0.0719 
     91 H91        30.4514   26.8268   -0.4774 H         1 UNK         0.0809 
     92 H92        30.0337   27.8740   -1.8317 H         1 UNK         0.0809 
     93 H93        30.8145   28.5490   -0.4117 H         1 UNK         0.0809 
     94 H94        28.0756   26.4981   -1.3770 H         1 UNK         0.2990 
     95 H95        24.9203   25.5069   -0.2897 H         1 UNK         0.0690 
     96 H96        25.4559   26.9337   -2.9468 H         1 UNK         0.0788 
     97 H97        24.1968   27.3441   -1.7930 H         1 UNK         0.0788 
     98 H98        24.1436   25.8000   -2.6270 H         1 UNK         0.0788 
     99 H99        26.0691   23.8198   -1.0936 H         1 UNK         0.2993 
    100 H100       26.9232   22.6547   -3.1833 H         1 UNK         0.0949 
    101 H101       29.7741   23.6931   -3.6090 H         1 UNK         0.0767 
    102 H102       29.1235   22.1698   -4.2161 H         1 UNK         0.0767 
    103 H103       28.4900   23.6937   -4.8105 H         1 UNK         0.0767 
    104 H104       29.3302   22.3232   -1.6276 H         1 UNK         0.3013 
    105 H105       26.3183   28.2316    2.3866 H         1 UNK         0.3121 
    106 H106       24.9545   29.4733    4.5847 H         1 UNK         0.0774 
    107 H107       23.6873   30.6165    2.7678 H         1 UNK         0.0815 
    108 H108       24.8569   30.0648    1.5761 H         1 UNK         0.0815 
    109 H109       23.8425   28.9004    2.4263 H         1 UNK         0.0815 
    110 H110       27.8253   30.3975    2.8236 H         1 UNK         0.2987 
    111 H111       27.9687   32.9596    4.3115 H         1 UNK         0.0949 
    112 H112       28.6385   32.6061    1.3338 H         1 UNK         0.0806 
    113 H113       27.2826   33.5399    1.9667 H         1 UNK         0.0806 
    114 H114       28.9311   34.0532    2.2906 H         1 UNK         0.0806 
    115 H115       28.8856   30.7097    5.3138 H         1 UNK         0.3010 
    116 H116       31.0917   29.4097    4.5265 H         1 UNK         0.0829 
    117 H117       31.4203   28.8227    6.9547 H         1 UNK         0.0813 
    118 H118       30.3399   30.1314    7.4113 H         1 UNK         0.0813 
    119 H119       29.7320   28.7593    6.4891 H         1 UNK         0.0813 
    120 H120       31.2760   32.6407    5.8867 H         1 UNK         0.3038 
    121 H121       34.0258   32.7568    6.5670 H         1 UNK         0.0769 
    122 H122       33.7051   35.2267    6.3024 H         1 UNK         0.0811 
    123 H123       32.3923   34.5089    7.2197 H         1 UNK         0.0811 
    124 H124       32.1500   34.9533    5.5290 H         1 UNK         0.0811 
    125 H125       32.4460   32.7905    3.3911 H         1 UNK         0.3204 
    126 H126       34.7302   33.7733    1.9017 H         1 UNK         0.0748 
    127 H127       33.3988   33.0383   -0.0594 H         1 UNK         0.0771 
    128 H128       32.2761   32.1776    0.9843 H         1 UNK         0.0771 
    129 H129       32.3792   33.9363    1.0549 H         1 UNK         0.0771 
    130 H130       33.9114   30.6763    3.3088 H         1 UNK         0.2980 
    131 H131       35.7220   29.1514    1.5555 H         1 UNK         0.0545 
    132 H132       36.3067   31.1629    4.2207 H         1 UNK         0.3459 
    133 H133       37.7020   30.3028    4.8249 H         1 UNK         0.3459 
    134 H134       34.9228   27.1770    2.8580 H         1 UNK         0.0616 
    135 H135       33.9282   28.2112    3.8458 H         1 UNK         0.0616 
    136 H136       34.0122   25.8538    1.1423 H         1 UNK         0.0634 
    137 H137       32.5014   26.0725    0.3081 H         1 UNK         0.0634 
@<TRIPOS>BOND
     1    1    2 1    
     2    1   72 1    
     3    1   73 1    
     4    1   74 1    
     5    2    3 2    
     6    2    4 am   BACKBONE|DICT|INTERRES
     7    4    5 1    
     8    4   75 1    
     9    5    6 1    
    10    5   35 1    
    11    5   76 1    
    12    6    7 1    
    13    6   77 1    
    14    6   78 1    
    15    7    8 1    
    16    8    9 1    
    17    8   79 1    
    18    8   80 1    
    19    9   10 ar   
    20    9   14 ar   
    21   10   11 ar   
    22   10   81 1    
    23   11   12 ar   
    24   11   71 1    
    25   12   13 ar   
    26   12   82 1    
    27   13   14 ar   
    28   13   15 1    
    29   14   83 1    
    30   15   16 1    
    31   15   84 1    
    32   15   85 1    
    33   16   17 1    
    34   17   18 1    
    35   17   86 1    
    36   17   87 1    
    37   18   19 1    
    38   18   37 1    
    39   18   88 1    
    40   19   20 am   BACKBONE|DICT|INTERRES
    41   19   89 1    
    42   20   21 2    
    43   20   22 1    
    44   22   23 1    
    45   22   24 1    
    46   22   90 1    
    47   23   91 1    
    48   23   92 1    
    49   23   93 1    
    50   24   25 am   BACKBONE|DICT|INTERRES
    51   24   94 1    
    52   25   26 2    
    53   25   27 1    
    54   27   28 1    
    55   27   29 1    
    56   27   95 1    
    57   28   96 1    
    58   28   97 1    
    59   28   98 1    
    60   29   30 am   BACKBONE|DICT|INTERRES
    61   29   99 1    
    62   30   31 2    
    63   30   32 1    
    64   32   33 1    
    65   32   34 1    
    66   32  100 1    
    67   33  101 1    
    68   33  102 1    
    69   33  103 1    
    70   34   35 am   BACKBONE|DICT|INTERRES
    71   34  104 1    
    72   35   36 2    
    73   37   38 2    
    74   37   39 am   BACKBONE|DICT|INTERRES
    75   39   40 1    
    76   39  105 1    
    77   40   41 1    
    78   40   42 1    
    79   40  106 1    
    80   41  107 1    
    81   41  108 1    
    82   41  109 1    
    83   42   43 2    
    84   42   44 am   BACKBONE|DICT|INTERRES
    85   44   45 1    
    86   44  110 1    
    87   45   46 1    
    88   45   47 1    
    89   45  111 1    
    90   46  112 1    
    91   46  113 1    
    92   46  114 1    
    93   47   48 2    
    94   47   49 am   BACKBONE|DICT|INTERRES
    95   49   50 1    
    96   49  115 1    
    97   50   51 1    
    98   50   52 1    
    99   50  116 1    
   100   51  117 1    
   101   51  118 1    
   102   51  119 1    
   103   52   53 2    
   104   52   54 am   BACKBONE|DICT|INTERRES
   105   54   55 1    
   106   54  120 1    
   107   55   56 1    
   108   55   57 1    
   109   55  121 1    
   110   56  122 1    
   111   56  123 1    
   112   56  124 1    
   113   57   58 2    
   114   57   59 am   BACKBONE|DICT|INTERRES
   115   59   60 1    
   116   59  125 1    
   117   60   61 1    
   118   60   62 1    
   119   60  126 1    
   120   61  127 1    
   121   61  128 1    
   122   61  129 1    
   123   62   63 2    
   124   62   64 am   BACKBONE|DICT|INTERRES
   125   64   65 1    
   126   64  130 1    
   127   65   66 1    
   128   65   69 1    
   129   65  131 1    
   130   66   67 am   BACKBONE|DICT|INTERRES
   131   66   68 2    
   132   67  132 1    
   133   67  133 1    
   134   69   70 1    
   135   69  134 1    
   136   69  135 1    
   137   70   71 1    
   138   71  136 1    
   139   71  137 1    
@<TRIPOS>SUBSTRUCTURE
     1 UNK         1 GROUP             0       ****    0 ROOT    
