@<TRIPOS>MOLECULE
3R136
137   139    1
SMALL
USER_CHARGES


@<TRIPOS>ATOM
      1 CA         27.1095   21.2220    0.6456 C.3       0 UNK        -0.1979 
      2 C          27.9823   22.3678    1.1322 C.2       0 UNK         0.4864 
      3 O          27.6330   23.5331    0.9288 O.2       0 UNK        -0.5359 
      4 N          29.1168   22.0574    1.7740 N.am      1 UNK        -0.4318 
      5 CA         30.0564   23.0473    2.3098 C.3       1 UNK         0.0824 
      6 C6         31.3812   22.4192    2.8032 C.3       12 UNK        -0.0944 
      7 S7         32.2444   21.4063    1.5476 S.3       12 UNK        -0.2672 
      8 C8         32.5064   22.5603    0.1540 C.3       12 UNK         0.0333 
      9 C9         33.1672   23.8626    0.5859 C.ar      12 UNK        -0.0807 
     10 C10        34.4627   23.8543    1.1049 C.ar      12 UNK        -0.0894 
     11 C11        35.0478   25.0349    1.5691 C.ar      12 UNK        -0.0804 
     12 C12        34.3379   26.2374    1.4823 C.ar      12 UNK        -0.0824 
     13 C13        33.0407   26.2657    0.9576 C.ar      12 UNK        -0.0762 
     14 C14        32.4703   25.0710    0.4994 C.ar      12 UNK        -0.0782 
     15 C15        32.2541   27.5776    0.9873 C.3       12 UNK         0.0230 
     16 S16        30.9374   27.7054   -0.2736 S.3       12 UNK        -0.2608 
     17 C17        29.8118   28.8898    0.5312 C.3       12 UNK        -0.0989 
     18 CA         28.4823   29.0680   -0.2444 C.3       5 UNK         0.0716 
     19 N          27.7425   27.8116   -0.3506 N.am      5 UNK        -0.4135 
     20 C          26.8124   27.5297   -1.2709 C.2       4 UNK         0.5031 
     21 O          26.5114   28.2853   -2.1965 O.2       4 UNK        -0.5229 
     22 CA         26.0921   26.1777   -1.1302 C.3       4 UNK         0.0329 
     23 CB         26.7915   25.1061   -1.9819 C.3       4 UNK        -0.2001 
     24 N          26.0189   25.7149    0.2588 N.am      4 UNK        -0.4303 
     25 C          25.2281   26.2494    1.2014 C.2       3 UNK         0.5044 
     26 O          24.4391   27.1712    0.9928 O.2       3 UNK        -0.5152 
     27 CA         25.3600   25.6758    2.6183 C.3       3 UNK         0.0319 
     28 CB         24.7073   24.2863    2.7138 C.3       3 UNK        -0.2001 
     29 N          26.7692   25.5904    3.0096 N.am      3 UNK        -0.4354 
     30 C          27.3963   26.4756    3.7992 C.2       2 UNK         0.4964 
     31 O          26.8280   27.4421    4.3070 O.2       2 UNK        -0.5047 
     32 CA         28.9079   26.2975    4.0648 C.3       2 UNK         0.0288 
     33 CB         29.2051   26.1705    5.5732 C.3       2 UNK        -0.2113 
     34 N          29.5586   25.2300    3.2907 N.am      2 UNK        -0.4145 
     35 C          29.3942   23.9039    3.4070 C.2       1 UNK         0.5006 
     36 O          28.7136   23.3562    4.2772 O.2       1 UNK        -0.5103 
     37 C          27.5720   30.1213    0.4156 C.2       5 UNK         0.5055 
     38 O          27.5916   30.2635    1.6390 O.2       5 UNK        -0.5220 
     39 N          26.7651   30.8135   -0.4024 N.am      6 UNK        -0.4450 
     40 CA         25.8323   31.8652    0.0257 C.3       6 UNK         0.0367 
     41 CB         24.9343   32.2598   -1.1575 C.3       6 UNK        -0.1929 
     42 C          26.5317   33.1068    0.6115 C.2       6 UNK         0.5070 
     43 O          25.9506   33.7936    1.4522 O.2       6 UNK        -0.5237 
     44 N          27.7709   33.3492    0.1754 N.am      7 UNK        -0.4739 
     45 CA         28.7329   34.2604    0.7821 C.3       7 UNK         0.0276 
     46 CB         28.9875   35.4438   -0.1657 C.3       7 UNK        -0.1927 
     47 C          30.0159   33.4523    1.0114 C.2       7 UNK         0.5013 
     48 O          30.2893   32.5331    0.2336 O.2       7 UNK        -0.5193 
     49 N          30.7688   33.8085    2.0627 N.am      8 UNK        -0.4253 
     50 CA         31.9762   33.1234    2.5474 C.3       8 UNK         0.0242 
     51 CB         33.1337   33.2498    1.5327 C.3       8 UNK        -0.2000 
     52 C          31.6850   31.6637    2.9494 C.2       8 UNK         0.4948 
     53 O          32.3096   30.7347    2.4319 O.2       8 UNK        -0.5275 
     54 N          30.7226   31.4895    3.8670 N.am      9 UNK        -0.4246 
     55 CA         30.2322   30.2044    4.3804 C.3       9 UNK         0.0261 
     56 CB         28.8653   30.4271    5.0534 C.3       9 UNK        -0.1959 
     57 C          31.2387   29.4828    5.3031 C.2       9 UNK         0.5033 
     58 O          30.9215   29.1751    6.4537 O.2       9 UNK        -0.5390 
     59 N          32.4442   29.2455    4.7814 N.am      10 UNK        -0.4215 
     60 CA         33.5336   28.5226    5.4295 C.3       10 UNK         0.0240 
     61 CB         34.8588   28.9952    4.8053 C.3       10 UNK        -0.1982 
     62 C          33.3775   27.0011    5.2734 C.2       10 UNK         0.4970 
     63 O          32.5973   26.5371    4.4392 O.2       10 UNK        -0.4916 
     64 N          34.1764   26.2663    6.0576 N.am      11 UNK        -0.4279 
     65 CA         34.3720   24.8059    5.9832 C.3       11 UNK         0.1003 
     66 C          33.1509   23.9555    6.4489 C.2       11 UNK         0.5709 
     67 N          32.1881   24.5231    7.1652 N.am      11 UNK        -0.7358 
     68 O          33.0888   22.7557    6.1912 O.2       11 UNK        -0.4999 
     69 C69        34.9428   24.3291    4.6137 C.3       12 UNK        -0.0954 
     70 S70        36.3605   25.3307    4.0232 S.3       12 UNK        -0.2268 
     71 C71        36.4185   24.9856    2.2302 C.3       12 UNK         0.0203 
     72 H72        26.9488   21.3057   -0.4288 H         1 UNK         0.0888 
     73 H73        27.5622   20.2514    0.8473 H         1 UNK         0.0888 
     74 H74        26.1390   21.2550    1.1395 H         1 UNK         0.0888 
     75 H75        29.3604   21.0903    1.9322 H         1 UNK         0.3017 
     76 H76        30.2859   23.7127    1.4799 H         1 UNK         0.0873 
     77 H77        31.1987   21.7853    3.6733 H         1 UNK         0.0745 
     78 H78        32.0677   23.1976    3.1425 H         1 UNK         0.0745 
     79 H79        31.5507   22.7487   -0.3374 H         1 UNK         0.0705 
     80 H80        33.1364   22.0720   -0.5907 H         1 UNK         0.0705 
     81 H81        34.9956   22.9168    1.1888 H         1 UNK         0.1334 
     82 H82        34.7811   27.1438    1.8706 H         1 UNK         0.1417 
     83 H83        31.4686   25.0710    0.0956 H         1 UNK         0.1562 
     84 H84        32.9301   28.4249    0.8611 H         1 UNK         0.0748 
     85 H85        31.8178   27.6790    1.9818 H         1 UNK         0.0748 
     86 H86        30.3321   29.8449    0.6283 H         1 UNK         0.0940 
     87 H87        29.6124   28.5395    1.5439 H         1 UNK         0.0940 
     88 H88        28.7314   29.4173   -1.2491 H         1 UNK         0.0703 
     89 H89        27.9100   27.1310    0.3733 H         1 UNK         0.3081 
     90 H90        25.0739   26.3036   -1.5045 H         1 UNK         0.0719 
     91 H91        26.8372   25.4072   -3.0294 H         1 UNK         0.0809 
     92 H92        27.8145   24.9284   -1.6469 H         1 UNK         0.0809 
     93 H93        26.2578   24.1564   -1.9399 H         1 UNK         0.0809 
     94 H94        26.6160   24.9253    0.5063 H         1 UNK         0.2990 
     95 H95        24.8196   26.3386    3.2977 H         1 UNK         0.0690 
     96 H96        24.7745   23.8887    3.7267 H         1 UNK         0.0788 
     97 H97        25.1720   23.5651    2.0417 H         1 UNK         0.0788 
     98 H98        23.6489   24.3362    2.4548 H         1 UNK         0.0788 
     99 H99        27.2967   24.8210    2.6149 H         1 UNK         0.2993 
    100 H100       29.3754   27.2220    3.7258 H         1 UNK         0.0949 
    101 H101       28.7195   25.3018    6.0173 H         1 UNK         0.0767 
    102 H102       30.2753   26.0905    5.7581 H         1 UNK         0.0767 
    103 H103       28.8529   27.0484    6.1160 H         1 UNK         0.0767 
    104 H104       30.1687   25.5602    2.5565 H         1 UNK         0.3013 
    105 H105       26.7637   30.5749   -1.3857 H         1 UNK         0.3121 
    106 H106       25.2000   31.4467    0.8118 H         1 UNK         0.0774 
    107 H107       24.2098   33.0194   -0.8601 H         1 UNK         0.0815 
    108 H108       25.5138   32.6693   -1.9859 H         1 UNK         0.0815 
    109 H109       24.3700   31.4049   -1.5306 H         1 UNK         0.0815 
    110 H110       28.1866   32.6853   -0.4655 H         1 UNK         0.2987 
    111 H111       28.3634   34.6278    1.7423 H         1 UNK         0.0949 
    112 H112       28.0698   36.0000   -0.3575 H         1 UNK         0.0806 
    113 H113       29.7068   36.1418    0.2644 H         1 UNK         0.0806 
    114 H114       29.3857   35.1138   -1.1263 H         1 UNK         0.0806 
    115 H115       30.4580   34.5889    2.6254 H         1 UNK         0.3010 
    116 H116       32.2851   33.6385    3.4584 H         1 UNK         0.0829 
    117 H117       33.3357   34.2925    1.2885 H         1 UNK         0.0813 
    118 H118       34.0534   32.8272    1.9391 H         1 UNK         0.0813 
    119 H119       32.9213   32.7222    0.6023 H         1 UNK         0.0813 
    120 H120       30.2789   32.3124    4.2482 H         1 UNK         0.3038 
    121 H121       30.0692   29.5487    3.5258 H         1 UNK         0.0769 
    122 H122       28.4449   29.4848    5.4069 H         1 UNK         0.0811 
    123 H123       28.1447   30.8533    4.3548 H         1 UNK         0.0811 
    124 H124       28.9405   31.0942    5.9128 H         1 UNK         0.0811 
    125 H125       32.6015   29.5607    3.8261 H         1 UNK         0.3204 
    126 H126       33.5370   28.7647    6.4945 H         1 UNK         0.0748 
    127 H127       35.7165   28.5135    5.2766 H         1 UNK         0.0771 
    128 H128       34.9045   28.7683    3.7395 H         1 UNK         0.0771 
    129 H129       34.9901   30.0712    4.9226 H         1 UNK         0.0771 
    130 H130       34.7713   26.7422    6.7196 H         1 UNK         0.2980 
    131 H131       35.1407   24.5946    6.7270 H         1 UNK         0.0545 
    132 H132       31.4089   23.9642    7.4731 H         1 UNK         0.3459 
    133 H133       32.2301   25.5037    7.3898 H         1 UNK         0.3459 
    134 H134       35.2700   23.2900    4.6745 H         1 UNK         0.0616 
    135 H135       34.1411   24.3508    3.8772 H         1 UNK         0.0616 
    136 H136       37.0761   25.7125    1.7520 H         1 UNK         0.0634 
    137 H137       36.8824   24.0093    2.0817 H         1 UNK         0.0634 
@<TRIPOS>BOND
     1    1    2 1    
     2    1   72 1    
     3    1   73 1    
     4    1   74 1    
     5    2    3 2    
     6    2    4 am   BACKBONE|DICT|INTERRES
     7    4    5 1    
     8    4   75 1    
     9    5    6 1    
    10    5   35 1    
    11    5   76 1    
    12    6    7 1    
    13    6   77 1    
    14    6   78 1    
    15    7    8 1    
    16    8    9 1    
    17    8   79 1    
    18    8   80 1    
    19    9   10 ar   
    20    9   14 ar   
    21   10   11 ar   
    22   10   81 1    
    23   11   12 ar   
    24   11   71 1    
    25   12   13 ar   
    26   12   82 1    
    27   13   14 ar   
    28   13   15 1    
    29   14   83 1    
    30   15   16 1    
    31   15   84 1    
    32   15   85 1    
    33   16   17 1    
    34   17   18 1    
    35   17   86 1    
    36   17   87 1    
    37   18   19 1    
    38   18   37 1    
    39   18   88 1    
    40   19   20 am   BACKBONE|DICT|INTERRES
    41   19   89 1    
    42   20   21 2    
    43   20   22 1    
    44   22   23 1    
    45   22   24 1    
    46   22   90 1    
    47   23   91 1    
    48   23   92 1    
    49   23   93 1    
    50   24   25 am   BACKBONE|DICT|INTERRES
    51   24   94 1    
    52   25   26 2    
    53   25   27 1    
    54   27   28 1    
    55   27   29 1    
    56   27   95 1    
    57   28   96 1    
    58   28   97 1    
    59   28   98 1    
    60   29   30 am   BACKBONE|DICT|INTERRES
    61   29   99 1    
    62   30   31 2    
    63   30   32 1    
    64   32   33 1    
    65   32   34 1    
    66   32  100 1    
    67   33  101 1    
    68   33  102 1    
    69   33  103 1    
    70   34   35 am   BACKBONE|DICT|INTERRES
    71   34  104 1    
    72   35   36 2    
    73   37   38 2    
    74   37   39 am   BACKBONE|DICT|INTERRES
    75   39   40 1    
    76   39  105 1    
    77   40   41 1    
    78   40   42 1    
    79   40  106 1    
    80   41  107 1    
    81   41  108 1    
    82   41  109 1    
    83   42   43 2    
    84   42   44 am   BACKBONE|DICT|INTERRES
    85   44   45 1    
    86   44  110 1    
    87   45   46 1    
    88   45   47 1    
    89   45  111 1    
    90   46  112 1    
    91   46  113 1    
    92   46  114 1    
    93   47   48 2    
    94   47   49 am   BACKBONE|DICT|INTERRES
    95   49   50 1    
    96   49  115 1    
    97   50   51 1    
    98   50   52 1    
    99   50  116 1    
   100   51  117 1    
   101   51  118 1    
   102   51  119 1    
   103   52   53 2    
   104   52   54 am   BACKBONE|DICT|INTERRES
   105   54   55 1    
   106   54  120 1    
   107   55   56 1    
   108   55   57 1    
   109   55  121 1    
   110   56  122 1    
   111   56  123 1    
   112   56  124 1    
   113   57   58 2    
   114   57   59 am   BACKBONE|DICT|INTERRES
   115   59   60 1    
   116   59  125 1    
   117   60   61 1    
   118   60   62 1    
   119   60  126 1    
   120   61  127 1    
   121   61  128 1    
   122   61  129 1    
   123   62   63 2    
   124   62   64 am   BACKBONE|DICT|INTERRES
   125   64   65 1    
   126   64  130 1    
   127   65   66 1    
   128   65   69 1    
   129   65  131 1    
   130   66   67 am   BACKBONE|DICT|INTERRES
   131   66   68 2    
   132   67  132 1    
   133   67  133 1    
   134   69   70 1    
   135   69  134 1    
   136   69  135 1    
   137   70   71 1    
   138   71  136 1    
   139   71  137 1    
@<TRIPOS>SUBSTRUCTURE
     1 UNK         1 GROUP             0       ****    0 ROOT    
