@<TRIPOS>MOLECULE
3R136
137   139    1
SMALL
USER_CHARGES


@<TRIPOS>ATOM
      1 CA         32.0394   22.9813   -3.8666 C.3       0 UNK        -0.1979 
      2 C          31.0145   23.5048   -2.8719 C.2       0 UNK         0.4864 
      3 O          30.4500   22.7192   -2.1096 O.2       0 UNK        -0.5359 
      4 N          30.7582   24.8209   -2.8889 N.am      1 UNK        -0.4318 
      5 CA         29.8701   25.5979   -2.0032 C.3       1 UNK         0.0824 
      6 C6         30.2224   25.4971   -0.4959 C.3       12 UNK        -0.0944 
      7 S7         31.9695   25.8706   -0.1192 S.3       12 UNK        -0.2672 
      8 C8         32.5015   24.3443    0.7252 C.3       12 UNK         0.0333 
      9 C9         31.9704   24.2771    2.1511 C.ar      12 UNK        -0.0807 
     10 C10        32.6820   24.8797    3.1947 C.ar      12 UNK        -0.0894 
     11 C11        32.1814   24.8575    4.5002 C.ar      12 UNK        -0.0804 
     12 C12        30.9699   24.2142    4.7601 C.ar      12 UNK        -0.0824 
     13 C13        30.2438   23.6195    3.7252 C.ar      12 UNK        -0.0762 
     14 C14        30.7600   23.6318    2.4271 C.ar      12 UNK        -0.0782 
     15 C15        28.8793   23.0069    4.0075 C.3       12 UNK         0.0230 
     16 S16        27.5136   24.0425    3.3772 S.3       12 UNK        -0.2608 
     17 C17        27.8927   25.6870    4.0777 C.3       12 UNK        -0.0989 
     18 CA         28.2910   26.6951    2.9667 C.3       5 UNK         0.0716 
     19 N          27.1236   27.0266    2.1354 N.am      5 UNK        -0.4135 
     20 C          26.9444   28.0458    1.2833 C.2       4 UNK         0.5031 
     21 O          27.7519   28.9597    1.1232 O.2       4 UNK        -0.5229 
     22 CA         25.6263   28.0655    0.4827 C.3       4 UNK         0.0329 
     23 CB         25.7109   28.9728   -0.7600 C.3       4 UNK        -0.2001 
     24 N          25.1869   26.7332    0.0570 N.am      4 UNK        -0.4303 
     25 C          24.4698   25.8768    0.7980 C.2       3 UNK         0.5044 
     26 O          24.1863   26.0847    1.9777 O.2       3 UNK        -0.5152 
     27 CA         23.9813   24.5783    0.1273 C.3       3 UNK         0.0319 
     28 CB         22.4847   24.6820   -0.2090 C.3       3 UNK        -0.2001 
     29 N          24.7202   24.2410   -1.0922 N.am      3 UNK        -0.4354 
     30 C          25.9489   23.7093   -1.1045 C.2       2 UNK         0.4964 
     31 O          26.5569   23.3822   -0.0845 O.2       2 UNK        -0.5047 
     32 CA         26.6314   23.5155   -2.4728 C.3       2 UNK         0.0288 
     33 CB         25.8395   24.0754   -3.6782 C.3       2 UNK        -0.2113 
     34 N          27.9940   24.0544   -2.4402 N.am      2 UNK        -0.4145 
     35 C          28.3628   25.3204   -2.1976 C.2       1 UNK         0.5006 
     36 O          27.5667   26.2560   -2.0999 O.2       1 UNK        -0.5103 
     37 C          29.0308   27.9198    3.5471 C.2       5 UNK         0.5055 
     38 O          30.1182   28.2565    3.0771 O.2       5 UNK        -0.5220 
     39 N          28.4061   28.5829    4.5294 N.am      6 UNK        -0.4450 
     40 CA         28.9786   29.7161    5.2633 C.3       6 UNK         0.0367 
     41 CB         28.2299   29.8649    6.5990 C.3       6 UNK        -0.1929 
     42 C          28.9883   31.0490    4.4877 C.2       6 UNK         0.5070 
     43 O          29.5184   32.0321    5.0075 O.2       6 UNK        -0.5237 
     44 N          28.3885   31.0868    3.2904 N.am      7 UNK        -0.4739 
     45 CA         28.4168   32.2459    2.3975 C.3       7 UNK         0.0276 
     46 CB         27.0559   32.3930    1.6978 C.3       7 UNK        -0.1927 
     47 C          29.5516   32.1134    1.3719 C.2       7 UNK         0.5013 
     48 O          30.2633   33.0885    1.1281 O.2       7 UNK        -0.5193 
     49 N          29.6961   30.9165    0.7877 N.am      8 UNK        -0.4253 
     50 CA         30.7016   30.5924   -0.2217 C.3       8 UNK         0.0242 
     51 CB         30.2903   29.3013   -0.9452 C.3       8 UNK        -0.2000 
     52 C          32.1185   30.4548    0.3556 C.2       8 UNK         0.4948 
     53 O          33.0727   30.8325   -0.3269 O.2       8 UNK        -0.5275 
     54 N          32.2392   29.9228    1.5785 N.am      9 UNK        -0.4246 
     55 CA         33.5080   29.7216    2.2735 C.3       9 UNK         0.0261 
     56 CB         33.7333   28.2145    2.4645 C.3       9 UNK        -0.1959 
     57 C          33.4823   30.4274    3.6320 C.2       9 UNK         0.5033 
     58 O          32.4301   30.5173    4.2669 O.2       9 UNK        -0.5390 
     59 N          34.6614   30.8730    4.0806 N.am      10 UNK        -0.4215 
     60 CA         34.8901   31.4275    5.4140 C.3       10 UNK         0.0240 
     61 CB         36.0511   32.4380    5.3473 C.3       10 UNK        -0.1982 
     62 C          35.1620   30.2772    6.3973 C.2       10 UNK         0.4970 
     63 O          36.3161   30.0300    6.7522 O.2       10 UNK        -0.4916 
     64 N          34.0952   29.5616    6.7713 N.am      11 UNK        -0.4279 
     65 CA         34.1381   28.3655    7.6302 C.3       11 UNK         0.1003 
     66 C          34.5874   28.6161    9.1003 C.2       11 UNK         0.5709 
     67 N          34.5728   29.8458    9.6015 N.am      11 UNK        -0.7358 
     68 O          34.9586   27.6742    9.7968 O.2       11 UNK        -0.4999 
     69 C69        32.7979   27.5845    7.6054 C.3       12 UNK        -0.0954 
     70 S70        32.1961   27.2020    5.9277 S.3       12 UNK        -0.2268 
     71 C71        32.9141   25.5571    5.6337 C.3       12 UNK         0.0203 
     72 H72        31.5804   22.2457   -4.5265 H         1 UNK         0.0888 
     73 H73        32.4550   23.7783   -4.4830 H         1 UNK         0.0888 
     74 H74        32.8609   22.4994   -3.3372 H         1 UNK         0.0888 
     75 H75        31.2464   25.3847   -3.5708 H         1 UNK         0.3017 
     76 H76        30.0191   26.6371   -2.2997 H         1 UNK         0.0873 
     77 H77        29.6091   26.1928    0.0785 H         1 UNK         0.0745 
     78 H78        29.9693   24.5048   -0.1259 H         1 UNK         0.0745 
     79 H79        32.1814   23.4728    0.1519 H         1 UNK         0.0705 
     80 H80        33.5919   24.3146    0.7385 H         1 UNK         0.0705 
     81 H81        33.6143   25.3852    2.9855 H         1 UNK         0.1334 
     82 H82        30.5736   24.2142    5.7665 H         1 UNK         0.1417 
     83 H83        30.1976   23.1644    1.6310 H         1 UNK         0.1562 
     84 H84        28.7400   22.8508    5.0784 H         1 UNK         0.0748 
     85 H85        28.8194   22.0207    3.5450 H         1 UNK         0.0748 
     86 H86        28.6725   25.5947    4.8337 H         1 UNK         0.0940 
     87 H87        27.0102   26.0352    4.6174 H         1 UNK         0.0940 
     88 H88        29.0104   26.2012    2.3121 H         1 UNK         0.0703 
     89 H89        26.3629   26.3618    2.1966 H         1 UNK         0.3081 
     90 H90        24.8674   28.4888    1.1441 H         1 UNK         0.0719 
     91 H91        26.5017   28.6517   -1.4389 H         1 UNK         0.0809 
     92 H92        24.7727   28.9771   -1.3149 H         1 UNK         0.0809 
     93 H93        25.9218   30.0055   -0.4831 H         1 UNK         0.0809 
     94 H94        25.4638   26.4528   -0.8746 H         1 UNK         0.2990 
     95 H95        24.1113   23.7695    0.8500 H         1 UNK         0.0690 
     96 H96        22.1047   23.7472   -0.6217 H         1 UNK         0.0788 
     97 H97        22.2859   25.4749   -0.9312 H         1 UNK         0.0788 
     98 H98        21.8981   24.9010    0.6846 H         1 UNK         0.0788 
     99 H99        24.2872   24.4796   -1.9731 H         1 UNK         0.2993 
    100 H100       26.7305   22.4377   -2.6109 H         1 UNK         0.0949 
    101 H101       25.6556   25.1471   -3.5945 H         1 UNK         0.0767 
    102 H102       26.3827   23.9100   -4.6089 H         1 UNK         0.0767 
    103 H103       24.8750   23.5773   -3.7844 H         1 UNK         0.0767 
    104 H104       28.7433   23.3653   -2.4136 H         1 UNK         0.3013 
    105 H105       27.4901   28.2742    4.8208 H         1 UNK         0.3121 
    106 H106       30.0220   29.4805    5.4864 H         1 UNK         0.0774 
    107 H107       27.1769   30.1044    6.4470 H         1 UNK         0.0815 
    108 H108       28.6616   30.6642    7.2031 H         1 UNK         0.0815 
    109 H109       28.2880   28.9511    7.1908 H         1 UNK         0.0815 
    110 H110       28.0168   30.2265    2.9076 H         1 UNK         0.2987 
    111 H111       28.5933   33.1590    2.9707 H         1 UNK         0.0949 
    112 H112       26.8070   31.5150    1.1031 H         1 UNK         0.0806 
    113 H113       26.2545   32.5449    2.4209 H         1 UNK         0.0806 
    114 H114       27.0543   33.2527    1.0265 H         1 UNK         0.0806 
    115 H115       29.0380   30.1725    1.0195 H         1 UNK         0.3010 
    116 H116       30.7193   31.4017   -0.9549 H         1 UNK         0.0829 
    117 H117       29.3209   29.4074   -1.4328 H         1 UNK         0.0813 
    118 H118       31.0171   29.0304   -1.7121 H         1 UNK         0.0813 
    119 H119       30.2220   28.4666   -0.2475 H         1 UNK         0.0813 
    120 H120       31.4106   29.6435    2.0968 H         1 UNK         0.3038 
    121 H121       34.3383   30.1277    1.6922 H         1 UNK         0.0769 
    122 H122       32.9004   27.7585    3.0012 H         1 UNK         0.0811 
    123 H123       34.6413   28.0143    3.0346 H         1 UNK         0.0811 
    124 H124       33.8298   27.7054    1.5058 H         1 UNK         0.0811 
    125 H125       35.4843   30.7222    3.5141 H         1 UNK         0.3204 
    126 H126       34.0001   31.9630    5.7527 H         1 UNK         0.0748 
    127 H127       36.2554   32.8614    6.3317 H         1 UNK         0.0771 
    128 H128       36.9743   31.9781    4.9918 H         1 UNK         0.0771 
    129 H129       35.8139   33.2682    4.6817 H         1 UNK         0.0771 
    130 H130       33.1941   29.7930    6.3730 H         1 UNK         0.2980 
    131 H131       34.8971   27.7090    7.2003 H         1 UNK         0.0545 
    132 H132       34.2687   30.6236    9.0388 H         1 UNK         0.3459 
    133 H133       34.8693   29.9947   10.5531 H         1 UNK         0.3459 
    134 H134       32.0192   28.1665    8.1017 H         1 UNK         0.0616 
    135 H135       32.8817   26.6546    8.1708 H         1 UNK         0.0616 
    136 H136       33.9758   25.6617    5.4052 H         1 UNK         0.0634 
    137 H137       32.8453   24.9517    6.5386 H         1 UNK         0.0634 
@<TRIPOS>BOND
     1    1    2 1    
     2    1   72 1    
     3    1   73 1    
     4    1   74 1    
     5    2    3 2    
     6    2    4 am   BACKBONE|DICT|INTERRES
     7    4    5 1    
     8    4   75 1    
     9    5    6 1    
    10    5   35 1    
    11    5   76 1    
    12    6    7 1    
    13    6   77 1    
    14    6   78 1    
    15    7    8 1    
    16    8    9 1    
    17    8   79 1    
    18    8   80 1    
    19    9   10 ar   
    20    9   14 ar   
    21   10   11 ar   
    22   10   81 1    
    23   11   12 ar   
    24   11   71 1    
    25   12   13 ar   
    26   12   82 1    
    27   13   14 ar   
    28   13   15 1    
    29   14   83 1    
    30   15   16 1    
    31   15   84 1    
    32   15   85 1    
    33   16   17 1    
    34   17   18 1    
    35   17   86 1    
    36   17   87 1    
    37   18   19 1    
    38   18   37 1    
    39   18   88 1    
    40   19   20 am   BACKBONE|DICT|INTERRES
    41   19   89 1    
    42   20   21 2    
    43   20   22 1    
    44   22   23 1    
    45   22   24 1    
    46   22   90 1    
    47   23   91 1    
    48   23   92 1    
    49   23   93 1    
    50   24   25 am   BACKBONE|DICT|INTERRES
    51   24   94 1    
    52   25   26 2    
    53   25   27 1    
    54   27   28 1    
    55   27   29 1    
    56   27   95 1    
    57   28   96 1    
    58   28   97 1    
    59   28   98 1    
    60   29   30 am   BACKBONE|DICT|INTERRES
    61   29   99 1    
    62   30   31 2    
    63   30   32 1    
    64   32   33 1    
    65   32   34 1    
    66   32  100 1    
    67   33  101 1    
    68   33  102 1    
    69   33  103 1    
    70   34   35 am   BACKBONE|DICT|INTERRES
    71   34  104 1    
    72   35   36 2    
    73   37   38 2    
    74   37   39 am   BACKBONE|DICT|INTERRES
    75   39   40 1    
    76   39  105 1    
    77   40   41 1    
    78   40   42 1    
    79   40  106 1    
    80   41  107 1    
    81   41  108 1    
    82   41  109 1    
    83   42   43 2    
    84   42   44 am   BACKBONE|DICT|INTERRES
    85   44   45 1    
    86   44  110 1    
    87   45   46 1    
    88   45   47 1    
    89   45  111 1    
    90   46  112 1    
    91   46  113 1    
    92   46  114 1    
    93   47   48 2    
    94   47   49 am   BACKBONE|DICT|INTERRES
    95   49   50 1    
    96   49  115 1    
    97   50   51 1    
    98   50   52 1    
    99   50  116 1    
   100   51  117 1    
   101   51  118 1    
   102   51  119 1    
   103   52   53 2    
   104   52   54 am   BACKBONE|DICT|INTERRES
   105   54   55 1    
   106   54  120 1    
   107   55   56 1    
   108   55   57 1    
   109   55  121 1    
   110   56  122 1    
   111   56  123 1    
   112   56  124 1    
   113   57   58 2    
   114   57   59 am   BACKBONE|DICT|INTERRES
   115   59   60 1    
   116   59  125 1    
   117   60   61 1    
   118   60   62 1    
   119   60  126 1    
   120   61  127 1    
   121   61  128 1    
   122   61  129 1    
   123   62   63 2    
   124   62   64 am   BACKBONE|DICT|INTERRES
   125   64   65 1    
   126   64  130 1    
   127   65   66 1    
   128   65   69 1    
   129   65  131 1    
   130   66   67 am   BACKBONE|DICT|INTERRES
   131   66   68 2    
   132   67  132 1    
   133   67  133 1    
   134   69   70 1    
   135   69  134 1    
   136   69  135 1    
   137   70   71 1    
   138   71  136 1    
   139   71  137 1    
@<TRIPOS>SUBSTRUCTURE
     1 UNK         1 GROUP             0       ****    0 ROOT    
