@<TRIPOS>MOLECULE
3R136
137   139    1
SMALL
USER_CHARGES


@<TRIPOS>ATOM
      1 CA         31.3035   20.7121   -2.9314 C.3       0 UNK        -0.1979 
      2 C          31.3827   22.1176   -2.3542 C.2       0 UNK         0.4864 
      3 O          32.2684   22.8852   -2.7325 O.2       0 UNK        -0.5359 
      4 N          30.4616   22.4608   -1.4430 N.am      1 UNK        -0.4318 
      5 CA         30.4021   23.7588   -0.7523 C.3       1 UNK         0.0824 
      6 C6         29.5601   23.6988    0.5508 C.3       12 UNK        -0.0944 
      7 S7         29.9125   22.2435    1.5965 S.3       12 UNK        -0.2672 
      8 C8         31.1607   22.8846    2.7579 C.3       12 UNK         0.0333 
      9 C9         30.5647   23.7310    3.8771 C.ar      12 UNK        -0.0807 
     10 C10        31.0576   25.0165    4.1201 C.ar      12 UNK        -0.0894 
     11 C11        30.5590   25.7798    5.1799 C.ar      12 UNK        -0.0804 
     12 C12        29.5593   25.2513    6.0016 C.ar      12 UNK        -0.0824 
     13 C13        29.0362   23.9784    5.7523 C.ar      12 UNK        -0.0762 
     14 C14        29.5539   23.2180    4.6986 C.ar      12 UNK        -0.0782 
     15 C15        27.8994   23.4316    6.6059 C.3       12 UNK         0.0230 
     16 S16        26.2865   23.5680    5.7610 S.3       12 UNK        -0.2608 
     17 C17        25.9841   25.3698    5.7917 C.3       12 UNK        -0.0989 
     18 CA         26.5242   26.0749    4.5226 C.3       5 UNK         0.0716 
     19 N          25.9231   25.5702    3.2821 N.am      5 UNK        -0.4135 
     20 C          26.5369   25.6263    2.0941 C.2       4 UNK         0.5031 
     21 O          27.6531   26.1262    1.9442 O.2       4 UNK        -0.5229 
     22 CA         25.7916   25.0719    0.8629 C.3       4 UNK         0.0329 
     23 CB         24.2618   24.9473    1.0492 C.3       4 UNK        -0.2001 
     24 N          26.1198   25.8609   -0.3314 N.am      4 UNK        -0.4303 
     25 C          25.8963   27.1729   -0.5102 C.2       3 UNK         0.5044 
     26 O          25.2227   27.8576    0.2611 O.2       3 UNK        -0.5152 
     27 CA         26.5615   27.8470   -1.7261 C.3       3 UNK         0.0319 
     28 CB         27.1872   29.1994   -1.3392 C.3       3 UNK        -0.2001 
     29 N          27.6018   27.0072   -2.3290 N.am      3 UNK        -0.4354 
     30 C          27.4417   26.2182   -3.3965 C.2       2 UNK         0.4964 
     31 O          26.3825   26.1088   -4.0139 O.2       2 UNK        -0.5047 
     32 CA         28.6582   25.3876   -3.8397 C.3       2 UNK         0.0288 
     33 CB         29.7293   26.2689   -4.5135 C.3       2 UNK        -0.2113 
     34 N          29.2314   24.5427   -2.7804 N.am      2 UNK        -0.4145 
     35 C          29.8960   24.8993   -1.6676 C.2       1 UNK         0.5006 
     36 O          30.1010   26.0692   -1.3421 O.2       1 UNK        -0.5103 
     37 C          26.5097   27.6155    4.6479 C.2       5 UNK         0.5055 
     38 O          27.0394   28.1373    5.6298 O.2       5 UNK        -0.5220 
     39 N          25.9608   28.3266    3.6508 N.am      6 UNK        -0.4450 
     40 CA         26.0550   29.7829    3.5173 C.3       6 UNK         0.0367 
     41 CB         24.8303   30.3033    2.7457 C.3       6 UNK        -0.1929 
     42 C          27.3698   30.2390    2.8494 C.2       6 UNK         0.5070 
     43 O          27.5396   31.4399    2.6320 O.2       6 UNK        -0.5237 
     44 N          28.2771   29.3022    2.5289 N.am      7 UNK        -0.4739 
     45 CA         29.5966   29.5284    1.9311 C.3       7 UNK         0.0276 
     46 CB         30.1497   28.1799    1.4338 C.3       7 UNK        -0.1927 
     47 C          30.5862   30.2426    2.8750 C.2       7 UNK         0.5013 
     48 O          31.6296   29.6853    3.2226 O.2       7 UNK        -0.5193 
     49 N          30.2734   31.4897    3.2467 N.am      8 UNK        -0.4253 
     50 CA         31.0971   32.3636    4.0911 C.3       8 UNK         0.0242 
     51 CB         30.3641   33.6958    4.3119 C.3       8 UNK        -0.2000 
     52 C          32.5153   32.6107    3.5435 C.2       8 UNK         0.4948 
     53 O          33.4385   32.8035    4.3322 O.2       8 UNK        -0.5275 
     54 N          32.6781   32.5475    2.2145 N.am      9 UNK        -0.4246 
     55 CA         33.9718   32.5886    1.5293 C.3       9 UNK         0.0261 
     56 CB         33.7366   32.7518    0.0187 C.3       9 UNK        -0.1959 
     57 C          34.8604   31.3583    1.8045 C.2       9 UNK         0.5033 
     58 O          36.0826   31.4794    1.7089 O.2       9 UNK        -0.5390 
     59 N          34.2502   30.2091    2.1312 N.am      10 UNK        -0.4215 
     60 CA         34.9491   28.9769    2.4956 C.3       10 UNK         0.0240 
     61 CB         34.1532   27.7549    2.0021 C.3       10 UNK        -0.1982 
     62 C          35.1784   28.9053    4.0116 C.2       10 UNK         0.4970 
     63 O          36.2950   28.6017    4.4339 O.2       10 UNK        -0.4916 
     64 N          34.1274   29.1773    4.7980 N.am      11 UNK        -0.4279 
     65 CA         34.1749   29.1420    6.2693 C.3       11 UNK         0.1003 
     66 C          34.9173   30.3383    6.9301 C.2       11 UNK         0.5709 
     67 N          35.0510   31.4906    6.2879 N.am      11 UNK        -0.7358 
     68 O          35.4003   30.2096    8.0528 O.2       11 UNK        -0.4999 
     69 C69        32.7657   28.9311    6.8834 C.3       12 UNK        -0.0954 
     70 S70        32.2643   27.1799    6.8211 S.3       12 UNK        -0.2268 
     71 C71        31.0950   27.1783    5.4342 C.3       12 UNK         0.0203 
     72 H72        32.2268   20.1707   -2.7269 H         1 UNK         0.0888 
     73 H73        30.4764   20.1428   -2.5075 H         1 UNK         0.0888 
     74 H74        31.1665   20.7568   -4.0115 H         1 UNK         0.0888 
     75 H75        29.7804   21.7778   -1.1415 H         1 UNK         0.3017 
     76 H76        31.4232   24.0222   -0.4675 H         1 UNK         0.0873 
     77 H77        28.4968   23.6644    0.3121 H         1 UNK         0.0745 
     78 H78        29.7072   24.6063    1.1402 H         1 UNK         0.0745 
     79 H79        31.6805   22.0379    3.2081 H         1 UNK         0.0705 
     80 H80        31.9136   23.4422    2.1984 H         1 UNK         0.0705 
     81 H81        31.8388   25.4215    3.4913 H         1 UNK         0.1334 
     82 H82        29.1686   25.8468    6.8158 H         1 UNK         0.1417 
     83 H83        29.1606   22.2283    4.5094 H         1 UNK         0.1562 
     84 H84        27.8544   23.9426    7.5689 H         1 UNK         0.0748 
     85 H85        28.0901   22.3810    6.8299 H         1 UNK         0.0748 
     86 H86        26.4405   25.7809    6.6944 H         1 UNK         0.0940 
     87 H87        24.9112   25.5412    5.8939 H         1 UNK         0.0940 
     88 H88        27.5827   25.8365    4.4550 H         1 UNK         0.0703 
     89 H89        25.0086   25.1490    3.3541 H         1 UNK         0.3081 
     90 H90        26.1850   24.0697    0.6908 H         1 UNK         0.0719 
     91 H91        23.7816   24.6225    0.1261 H         1 UNK         0.0809 
     92 H92        23.8023   25.8919    1.3427 H         1 UNK         0.0809 
     93 H93        24.0130   24.2063    1.8096 H         1 UNK         0.0809 
     94 H94        26.7028   25.4017   -1.0145 H         1 UNK         0.2990 
     95 H95        25.7710   28.0397   -2.4541 H         1 UNK         0.0690 
     96 H96        27.6461   29.6853   -2.2003 H         1 UNK         0.0788 
     97 H97        27.9524   29.0811   -0.5730 H         1 UNK         0.0788 
     98 H98        26.4359   29.8853   -0.9451 H         1 UNK         0.0788 
     99 H99        28.5065   26.9836   -1.8633 H         1 UNK         0.2993 
    100 H100       28.2944   24.6930   -4.5990 H         1 UNK         0.0949 
    101 H101       30.5546   25.6659   -4.8927 H         1 UNK         0.0767 
    102 H102       29.3082   26.8116   -5.3609 H         1 UNK         0.0767 
    103 H103       30.1443   27.0104   -3.8303 H         1 UNK         0.0767 
    104 H104       29.1072   23.5500   -2.9228 H         1 UNK         0.3013 
    105 H105       25.5741   27.8323    2.8575 H         1 UNK         0.3121 
    106 H106       26.0330   30.2319    4.5126 H         1 UNK         0.0774 
    107 H107       24.8159   31.3938    2.7278 H         1 UNK         0.0815 
    108 H108       24.8294   29.9654    1.7098 H         1 UNK         0.0815 
    109 H109       23.8988   29.9770    3.2081 H         1 UNK         0.0815 
    110 H110       28.0420   28.3345    2.7089 H         1 UNK         0.2987 
    111 H111       29.4664   30.1757    1.0617 H         1 UNK         0.0949 
    112 H112       30.2899   27.4736    2.2530 H         1 UNK         0.0806 
    113 H113       29.4778   27.7157    0.7128 H         1 UNK         0.0806 
    114 H114       31.1131   28.3043    0.9381 H         1 UNK         0.0806 
    115 H115       29.3594   31.8369    2.9646 H         1 UNK         0.3010 
    116 H116       31.2081   31.8680    5.0578 H         1 UNK         0.0829 
    117 H117       29.3958   33.5415    4.7887 H         1 UNK         0.0813 
    118 H118       30.9415   34.3568    4.9600 H         1 UNK         0.0813 
    119 H119       30.1953   34.2241    3.3727 H         1 UNK         0.0813 
    120 H120       31.8602   32.4029    1.6407 H         1 UNK         0.3038 
    121 H121       34.5122   33.4673    1.8883 H         1 UNK         0.0769 
    122 H122       34.6840   32.8164   -0.5184 H         1 UNK         0.0811 
    123 H123       33.1800   33.6631   -0.2011 H         1 UNK         0.0811 
    124 H124       33.1833   31.9092   -0.3982 H         1 UNK         0.0811 
    125 H125       33.2427   30.2011    2.2548 H         1 UNK         0.3204 
    126 H126       35.9254   28.9527    2.0062 H         1 UNK         0.0748 
    127 H127       34.6863   26.8297    2.2250 H         1 UNK         0.0771 
    128 H128       33.1724   27.6829    2.4723 H         1 UNK         0.0771 
    129 H129       34.0033   27.7901    0.9229 H         1 UNK         0.0771 
    130 H130       33.2353   29.4048    4.3720 H         1 UNK         0.2980 
    131 H131       34.7767   28.2727    6.5438 H         1 UNK         0.0545 
    132 H132       34.5758   31.6727    5.4102 H         1 UNK         0.3459 
    133 H133       35.5473   32.2407    6.7406 H         1 UNK         0.3459 
    134 H134       32.0227   29.5620    6.3920 H         1 UNK         0.0616 
    135 H135       32.7480   29.2130    7.9381 H         1 UNK         0.0616 
    136 H136       30.2716   27.8653    5.6365 H         1 UNK         0.0634 
    137 H137       31.6058   27.5463    4.5461 H         1 UNK         0.0634 
@<TRIPOS>BOND
     1    1    2 1    
     2    1   72 1    
     3    1   73 1    
     4    1   74 1    
     5    2    3 2    
     6    2    4 am   BACKBONE|DICT|INTERRES
     7    4    5 1    
     8    4   75 1    
     9    5    6 1    
    10    5   35 1    
    11    5   76 1    
    12    6    7 1    
    13    6   77 1    
    14    6   78 1    
    15    7    8 1    
    16    8    9 1    
    17    8   79 1    
    18    8   80 1    
    19    9   10 ar   
    20    9   14 ar   
    21   10   11 ar   
    22   10   81 1    
    23   11   12 ar   
    24   11   71 1    
    25   12   13 ar   
    26   12   82 1    
    27   13   14 ar   
    28   13   15 1    
    29   14   83 1    
    30   15   16 1    
    31   15   84 1    
    32   15   85 1    
    33   16   17 1    
    34   17   18 1    
    35   17   86 1    
    36   17   87 1    
    37   18   19 1    
    38   18   37 1    
    39   18   88 1    
    40   19   20 am   BACKBONE|DICT|INTERRES
    41   19   89 1    
    42   20   21 2    
    43   20   22 1    
    44   22   23 1    
    45   22   24 1    
    46   22   90 1    
    47   23   91 1    
    48   23   92 1    
    49   23   93 1    
    50   24   25 am   BACKBONE|DICT|INTERRES
    51   24   94 1    
    52   25   26 2    
    53   25   27 1    
    54   27   28 1    
    55   27   29 1    
    56   27   95 1    
    57   28   96 1    
    58   28   97 1    
    59   28   98 1    
    60   29   30 am   BACKBONE|DICT|INTERRES
    61   29   99 1    
    62   30   31 2    
    63   30   32 1    
    64   32   33 1    
    65   32   34 1    
    66   32  100 1    
    67   33  101 1    
    68   33  102 1    
    69   33  103 1    
    70   34   35 am   BACKBONE|DICT|INTERRES
    71   34  104 1    
    72   35   36 2    
    73   37   38 2    
    74   37   39 am   BACKBONE|DICT|INTERRES
    75   39   40 1    
    76   39  105 1    
    77   40   41 1    
    78   40   42 1    
    79   40  106 1    
    80   41  107 1    
    81   41  108 1    
    82   41  109 1    
    83   42   43 2    
    84   42   44 am   BACKBONE|DICT|INTERRES
    85   44   45 1    
    86   44  110 1    
    87   45   46 1    
    88   45   47 1    
    89   45  111 1    
    90   46  112 1    
    91   46  113 1    
    92   46  114 1    
    93   47   48 2    
    94   47   49 am   BACKBONE|DICT|INTERRES
    95   49   50 1    
    96   49  115 1    
    97   50   51 1    
    98   50   52 1    
    99   50  116 1    
   100   51  117 1    
   101   51  118 1    
   102   51  119 1    
   103   52   53 2    
   104   52   54 am   BACKBONE|DICT|INTERRES
   105   54   55 1    
   106   54  120 1    
   107   55   56 1    
   108   55   57 1    
   109   55  121 1    
   110   56  122 1    
   111   56  123 1    
   112   56  124 1    
   113   57   58 2    
   114   57   59 am   BACKBONE|DICT|INTERRES
   115   59   60 1    
   116   59  125 1    
   117   60   61 1    
   118   60   62 1    
   119   60  126 1    
   120   61  127 1    
   121   61  128 1    
   122   61  129 1    
   123   62   63 2    
   124   62   64 am   BACKBONE|DICT|INTERRES
   125   64   65 1    
   126   64  130 1    
   127   65   66 1    
   128   65   69 1    
   129   65  131 1    
   130   66   67 am   BACKBONE|DICT|INTERRES
   131   66   68 2    
   132   67  132 1    
   133   67  133 1    
   134   69   70 1    
   135   69  134 1    
   136   69  135 1    
   137   70   71 1    
   138   71  136 1    
   139   71  137 1    
@<TRIPOS>SUBSTRUCTURE
     1 UNK         1 GROUP             0       ****    0 ROOT    
