@<TRIPOS>MOLECULE
3R136
137   139    1
SMALL
USER_CHARGES


@<TRIPOS>ATOM
      1 CA         29.4050   22.3964   -3.8913 C.3       0 UNK        -0.1979 
      2 C          29.0965   22.9781   -2.5210 C.2       0 UNK         0.4864 
      3 O          28.5146   24.0600   -2.4357 O.2       0 UNK        -0.5359 
      4 N          29.4660   22.2632   -1.4484 N.am      1 UNK        -0.4318 
      5 CA         29.3175   22.6630   -0.0397 C.3       1 UNK         0.0824 
      6 C6         29.8841   21.5895    0.9173 C.3       12 UNK        -0.0944 
      7 S7         31.7008   21.5053    0.7786 S.3       12 UNK        -0.2672 
      8 C8         32.2417   21.8647    2.4813 C.3       12 UNK         0.0333 
      9 C9         31.7715   23.2215    2.9948 C.ar      12 UNK        -0.0807 
     10 C10        32.3273   24.4027    2.4966 C.ar      12 UNK        -0.0894 
     11 C11        31.9562   25.6447    3.0260 C.ar      12 UNK        -0.0804 
     12 C12        31.0085   25.6949    4.0540 C.ar      12 UNK        -0.0824 
     13 C13        30.4065   24.5236    4.5304 C.ar      12 UNK        -0.0762 
     14 C14        30.8056   23.2921    4.0025 C.ar      12 UNK        -0.0782 
     15 C15        29.3480   24.5435    5.6342 C.3       12 UNK         0.0230 
     16 S16        28.1925   25.9587    5.5896 S.3       12 UNK        -0.2608 
     17 C17        27.5049   25.8877    3.8975 C.3       12 UNK        -0.0989 
     18 CA         27.8764   27.1531    3.0771 C.3       5 UNK         0.0716 
     19 N          28.1807   26.8506    1.6727 N.am      5 UNK        -0.4135 
     20 C          28.8535   27.6783    0.8577 C.2       4 UNK         0.5031 
     21 O          29.3011   28.7663    1.2196 O.2       4 UNK        -0.5229 
     22 CA         29.0034   27.2748   -0.6185 C.3       4 UNK         0.0329 
     23 CB         30.3297   26.5347   -0.8473 C.3       4 UNK        -0.2001 
     24 N          27.8865   26.4870   -1.1520 N.am      4 UNK        -0.4303 
     25 C          26.6145   26.9107   -1.2199 C.2       3 UNK         0.5044 
     26 O          26.2228   27.9691   -0.7303 O.2       3 UNK        -0.5152 
     27 CA         25.6097   26.0023   -1.9420 C.3       3 UNK         0.0319 
     28 CB         25.8013   26.0780   -3.4658 C.3       3 UNK        -0.2001 
     29 N          25.7544   24.6189   -1.4962 N.am      3 UNK        -0.4354 
     30 C          25.0396   24.0637   -0.5073 C.2       2 UNK         0.4964 
     31 O          24.0946   24.6196    0.0534 O.2       2 UNK        -0.5047 
     32 CA         25.4541   22.6530   -0.0446 C.3       2 UNK         0.0288 
     33 CB         24.6265   21.5824   -0.7741 C.3       2 UNK        -0.2113 
     34 N          26.8807   22.3625   -0.2205 N.am      2 UNK        -0.4145 
     35 C          27.8791   23.0493    0.3552 C.2       1 UNK         0.5006 
     36 O          27.7029   23.9947    1.1242 O.2       1 UNK        -0.5103 
     37 C          26.8676   28.3141    3.2712 C.2       5 UNK         0.5055 
     38 O          26.7049   28.7781    4.3999 O.2       5 UNK        -0.5220 
     39 N          26.2514   28.8286    2.1926 N.am      6 UNK        -0.4450 
     40 CA         25.5222   30.1036    2.2122 C.3       6 UNK         0.0367 
     41 CB         24.7167   30.2644    0.9138 C.3       6 UNK        -0.1929 
     42 C          26.4490   31.3202    2.4230 C.2       6 UNK         0.5070 
     43 O          25.9740   32.3643    2.8698 O.2       6 UNK        -0.5237 
     44 N          27.7458   31.1636    2.1231 N.am      7 UNK        -0.4739 
     45 CA         28.8067   32.1382    2.3651 C.3       7 UNK         0.0276 
     46 CB         29.2823   32.7110    1.0168 C.3       7 UNK        -0.1927 
     47 C          29.9362   31.4548    3.1536 C.2       7 UNK         0.5013 
     48 O          31.1035   31.5593    2.7726 O.2       7 UNK        -0.5193 
     49 N          29.5630   30.7578    4.2410 N.am      8 UNK        -0.4253 
     50 CA         30.4187   29.8976    5.0735 C.3       8 UNK         0.0242 
     51 CB         29.6242   29.4087    6.2942 C.3       8 UNK        -0.2000 
     52 C          31.7444   30.5188    5.5426 C.2       8 UNK         0.4948 
     53 O          32.7284   29.7923    5.6799 O.2       8 UNK        -0.5275 
     54 N          31.7621   31.8465    5.7323 N.am      9 UNK        -0.4246 
     55 CA         32.9446   32.6482    6.0605 C.3       9 UNK         0.0261 
     56 CB         32.5320   34.1212    6.2097 C.3       9 UNK        -0.1959 
     57 C          34.1015   32.5142    5.0512 C.2       9 UNK         0.5033 
     58 O          35.2569   32.6612    5.4523 O.2       9 UNK        -0.5390 
     59 N          33.7942   32.1869    3.7852 N.am      10 UNK        -0.4215 
     60 CA         34.7816   31.8757    2.7461 C.3       10 UNK         0.0240 
     61 CB         34.0714   31.7540    1.3881 C.3       10 UNK        -0.1982 
     62 C          35.6024   30.6033    3.0352 C.2       10 UNK         0.4970 
     63 O          36.7161   30.4869    2.5221 O.2       10 UNK        -0.4916 
     64 N          35.0543   29.6928    3.8502 N.am      11 UNK        -0.4279 
     65 CA         35.7152   28.4723    4.3326 C.3       11 UNK         0.1003 
     66 C          36.2775   28.6216    5.7772 C.2       11 UNK         0.5709 
     67 N          36.2740   29.8048    6.3833 N.am      11 UNK        -0.7358 
     68 O          36.7553   27.6488    6.3565 O.2       11 UNK        -0.4999 
     69 C69        34.7921   27.2323    4.1832 C.3       12 UNK        -0.0954 
     70 S70        34.3738   26.9119    2.4362 S.3       12 UNK        -0.2268 
     71 C71        32.5528   26.9329    2.4683 C.3       12 UNK         0.0203 
     72 H72        29.9111   21.4338   -3.8220 H         1 UNK         0.0888 
     73 H73        28.4829   22.2567   -4.4546 H         1 UNK         0.0888 
     74 H74        30.0457   23.0781   -4.4497 H         1 UNK         0.0888 
     75 H75        29.9508   21.3883   -1.5912 H         1 UNK         0.3017 
     76 H76        29.9110   23.5672    0.0916 H         1 UNK         0.0873 
     77 H77        29.6096   21.7989    1.9520 H         1 UNK         0.0745 
     78 H78        29.4656   20.6069    0.6920 H         1 UNK         0.0745 
     79 H79        33.3317   21.8316    2.5146 H         1 UNK         0.0705 
     80 H80        31.8966   21.0626    3.1358 H         1 UNK         0.0705 
     81 H81        33.0639   24.3530    1.7062 H         1 UNK         0.1334 
     82 H82        30.7282   26.6483    4.4766 H         1 UNK         0.1417 
     83 H83        30.3693   22.3800    4.3869 H         1 UNK         0.1562 
     84 H84        29.8562   24.5431    6.5992 H         1 UNK         0.0748 
     85 H85        28.7529   23.6294    5.6008 H         1 UNK         0.0748 
     86 H86        26.4244   25.7397    3.9467 H         1 UNK         0.0940 
     87 H87        27.8988   24.9908    3.4218 H         1 UNK         0.0940 
     88 H88        28.8124   27.5409    3.4825 H         1 UNK         0.0703 
     89 H89        27.8696   25.9489    1.3212 H         1 UNK         0.3081 
     90 H90        29.0348   28.1976   -1.2016 H         1 UNK         0.0719 
     91 H91        30.4527   25.7010   -0.1581 H         1 UNK         0.0809 
     92 H92        30.4091   26.1510   -1.8646 H         1 UNK         0.0809 
     93 H93        31.1734   27.2077   -0.6922 H         1 UNK         0.0809 
     94 H94        28.1254   25.6006   -1.5945 H         1 UNK         0.2990 
     95 H95        24.6050   26.3656   -1.7151 H         1 UNK         0.0690 
     96 H96        26.7875   25.7276   -3.7727 H         1 UNK         0.0788 
     97 H97        25.6944   27.1039   -3.8208 H         1 UNK         0.0788 
     98 H98        25.0568   25.4758   -3.9867 H         1 UNK         0.0788 
     99 H99        26.5489   24.1115   -1.8704 H         1 UNK         0.2993 
    100 H100       25.2363   22.5886    1.0238 H         1 UNK         0.0949 
    101 H101       24.8244   21.5806   -1.8468 H         1 UNK         0.0767 
    102 H102       24.8400   20.5846   -0.3900 H         1 UNK         0.0767 
    103 H103       23.5578   21.7569   -0.6400 H         1 UNK         0.0767 
    104 H104       27.1194   21.6121   -0.8524 H         1 UNK         0.3013 
    105 H105       26.4003   28.4096    1.2796 H         1 UNK         0.3121 
    106 H106       24.8176   30.0777    3.0462 H         1 UNK         0.0774 
    107 H107       24.0894   31.1558    0.9541 H         1 UNK         0.0815 
    108 H108       25.3684   30.3668    0.0454 H         1 UNK         0.0815 
    109 H109       24.0593   29.4117    0.7429 H         1 UNK         0.0815 
    110 H110       28.0678   30.2627    1.7787 H         1 UNK         0.2987 
    111 H111       28.4424   32.9619    2.9827 H         1 UNK         0.0949 
    112 H112       29.6921   31.9312    0.3731 H         1 UNK         0.0806 
    113 H113       28.4647   33.1933    0.4811 H         1 UNK         0.0806 
    114 H114       30.0619   33.4600    1.1617 H         1 UNK         0.0806 
    115 H115       28.5756   30.7327    4.4568 H         1 UNK         0.3010 
    116 H116       30.6740   29.0326    4.4605 H         1 UNK         0.0829 
    117 H117       30.2234   28.7329    6.9065 H         1 UNK         0.0813 
    118 H118       29.3119   30.2370    6.9311 H         1 UNK         0.0813 
    119 H119       28.7316   28.8605    6.0001 H         1 UNK         0.0813 
    120 H120       30.9006   32.3518    5.5864 H         1 UNK         0.3038 
    121 H121       33.3162   32.2954    7.0247 H         1 UNK         0.0769 
    122 H122       33.3886   34.7407    6.4796 H         1 UNK         0.0811 
    123 H123       31.7845   34.2481    6.9930 H         1 UNK         0.0811 
    124 H124       32.1204   34.5210    5.2820 H         1 UNK         0.0811 
    125 H125       32.8171   32.0534    3.5315 H         1 UNK         0.3204 
    126 H126       35.4817   32.7120    2.6929 H         1 UNK         0.0748 
    127 H127       34.7904   31.5911    0.5841 H         1 UNK         0.0771 
    128 H128       33.3718   30.9169    1.3741 H         1 UNK         0.0771 
    129 H129       33.5140   32.6595    1.1472 H         1 UNK         0.0771 
    130 H130       34.1532   29.8815    4.2768 H         1 UNK         0.2980 
    131 H131       36.5970   28.2815    3.7187 H         1 UNK         0.0545 
    132 H132       35.9121   30.6284    5.9214 H         1 UNK         0.3459 
    133 H133       36.6514   29.8777    7.3144 H         1 UNK         0.3459 
    134 H134       35.2808   26.3346    4.5655 H         1 UNK         0.0616 
    135 H135       33.8816   27.3585    4.7716 H         1 UNK         0.0616 
    136 H136       32.1923   27.0668    1.4493 H         1 UNK         0.0634 
    137 H137       32.2139   27.8062    3.0274 H         1 UNK         0.0634 
@<TRIPOS>BOND
     1    1    2 1    
     2    1   72 1    
     3    1   73 1    
     4    1   74 1    
     5    2    3 2    
     6    2    4 am   BACKBONE|DICT|INTERRES
     7    4    5 1    
     8    4   75 1    
     9    5    6 1    
    10    5   35 1    
    11    5   76 1    
    12    6    7 1    
    13    6   77 1    
    14    6   78 1    
    15    7    8 1    
    16    8    9 1    
    17    8   79 1    
    18    8   80 1    
    19    9   10 ar   
    20    9   14 ar   
    21   10   11 ar   
    22   10   81 1    
    23   11   12 ar   
    24   11   71 1    
    25   12   13 ar   
    26   12   82 1    
    27   13   14 ar   
    28   13   15 1    
    29   14   83 1    
    30   15   16 1    
    31   15   84 1    
    32   15   85 1    
    33   16   17 1    
    34   17   18 1    
    35   17   86 1    
    36   17   87 1    
    37   18   19 1    
    38   18   37 1    
    39   18   88 1    
    40   19   20 am   BACKBONE|DICT|INTERRES
    41   19   89 1    
    42   20   21 2    
    43   20   22 1    
    44   22   23 1    
    45   22   24 1    
    46   22   90 1    
    47   23   91 1    
    48   23   92 1    
    49   23   93 1    
    50   24   25 am   BACKBONE|DICT|INTERRES
    51   24   94 1    
    52   25   26 2    
    53   25   27 1    
    54   27   28 1    
    55   27   29 1    
    56   27   95 1    
    57   28   96 1    
    58   28   97 1    
    59   28   98 1    
    60   29   30 am   BACKBONE|DICT|INTERRES
    61   29   99 1    
    62   30   31 2    
    63   30   32 1    
    64   32   33 1    
    65   32   34 1    
    66   32  100 1    
    67   33  101 1    
    68   33  102 1    
    69   33  103 1    
    70   34   35 am   BACKBONE|DICT|INTERRES
    71   34  104 1    
    72   35   36 2    
    73   37   38 2    
    74   37   39 am   BACKBONE|DICT|INTERRES
    75   39   40 1    
    76   39  105 1    
    77   40   41 1    
    78   40   42 1    
    79   40  106 1    
    80   41  107 1    
    81   41  108 1    
    82   41  109 1    
    83   42   43 2    
    84   42   44 am   BACKBONE|DICT|INTERRES
    85   44   45 1    
    86   44  110 1    
    87   45   46 1    
    88   45   47 1    
    89   45  111 1    
    90   46  112 1    
    91   46  113 1    
    92   46  114 1    
    93   47   48 2    
    94   47   49 am   BACKBONE|DICT|INTERRES
    95   49   50 1    
    96   49  115 1    
    97   50   51 1    
    98   50   52 1    
    99   50  116 1    
   100   51  117 1    
   101   51  118 1    
   102   51  119 1    
   103   52   53 2    
   104   52   54 am   BACKBONE|DICT|INTERRES
   105   54   55 1    
   106   54  120 1    
   107   55   56 1    
   108   55   57 1    
   109   55  121 1    
   110   56  122 1    
   111   56  123 1    
   112   56  124 1    
   113   57   58 2    
   114   57   59 am   BACKBONE|DICT|INTERRES
   115   59   60 1    
   116   59  125 1    
   117   60   61 1    
   118   60   62 1    
   119   60  126 1    
   120   61  127 1    
   121   61  128 1    
   122   61  129 1    
   123   62   63 2    
   124   62   64 am   BACKBONE|DICT|INTERRES
   125   64   65 1    
   126   64  130 1    
   127   65   66 1    
   128   65   69 1    
   129   65  131 1    
   130   66   67 am   BACKBONE|DICT|INTERRES
   131   66   68 2    
   132   67  132 1    
   133   67  133 1    
   134   69   70 1    
   135   69  134 1    
   136   69  135 1    
   137   70   71 1    
   138   71  136 1    
   139   71  137 1    
@<TRIPOS>SUBSTRUCTURE
     1 UNK         1 GROUP             0       ****    0 ROOT    
