@<TRIPOS>MOLECULE
3R136
137   139    1
SMALL
USER_CHARGES


@<TRIPOS>ATOM
      1 CA         27.4585   22.6879   -3.3526 C.3       0 UNK        -0.1979 
      2 C          28.4435   22.6910   -2.1939 C.2       0 UNK         0.4864 
      3 O          28.2076   23.4018   -1.2160 O.2       0 UNK        -0.5359 
      4 N          29.5398   21.9261   -2.3252 N.am      1 UNK        -0.4318 
      5 CA         30.6611   21.6692   -1.3993 C.3       1 UNK         0.0824 
      6 C6         30.3215   20.6865   -0.2416 C.3       12 UNK        -0.0944 
      7 S7         29.2976   21.3604    1.1126 S.3       12 UNK        -0.2672 
      8 C8         30.5364   21.5175    2.4452 C.3       12 UNK         0.0333 
      9 C9         30.1007   22.4343    3.5862 C.ar      12 UNK        -0.0807 
     10 C10        31.0536   23.2315    4.2291 C.ar      12 UNK        -0.0894 
     11 C11        30.6908   24.0883    5.2731 C.ar      12 UNK        -0.0804 
     12 C12        29.3537   24.1308    5.6863 C.ar      12 UNK        -0.0824 
     13 C13        28.3916   23.3353    5.0599 C.ar      12 UNK        -0.0762 
     14 C14        28.7723   22.4820    4.0217 C.ar      12 UNK        -0.0782 
     15 C15        26.9385   23.3844    5.5029 C.3       12 UNK         0.0230 
     16 S16        25.8829   24.1432    4.2304 S.3       12 UNK        -0.2608 
     17 C17        26.3165   25.9128    4.3703 C.3       12 UNK        -0.0989 
     18 CA         27.3219   26.4259    3.2941 C.3       5 UNK         0.0716 
     19 N          26.9824   26.0214    1.9231 N.am      5 UNK        -0.4135 
     20 C          25.8657   26.3283    1.2470 C.2       4 UNK         0.5031 
     21 O          24.9678   27.0548    1.6784 O.2       4 UNK        -0.5229 
     22 CA         25.7397   25.6864   -0.1483 C.3       4 UNK         0.0329 
     23 CB         24.4358   26.0635   -0.8851 C.3       4 UNK        -0.2001 
     24 N          26.9176   25.9407   -0.9842 N.am      4 UNK        -0.4303 
     25 C          27.3629   27.1294   -1.4216 C.2       3 UNK         0.5044 
     26 O          26.7871   28.1997   -1.2204 O.2       3 UNK        -0.5152 
     27 CA         28.6868   27.1051   -2.2160 C.3       3 UNK         0.0319 
     28 CB         29.2638   28.5095   -2.4900 C.3       3 UNK        -0.2001 
     29 N          29.7180   26.2468   -1.6189 N.am      3 UNK        -0.4354 
     30 C          30.1755   26.2761   -0.3569 C.2       2 UNK         0.4964 
     31 O          29.7571   27.0376    0.5165 O.2       2 UNK        -0.5047 
     32 CA         31.2447   25.2312   -0.0133 C.3       2 UNK         0.0288 
     33 CB         31.5945   25.1995    1.4860 C.3       2 UNK        -0.2113 
     34 N          30.7504   23.9281   -0.4400 N.am      2 UNK        -0.4145 
     35 C          31.4576   22.9138   -0.9381 C.2       1 UNK         0.5006 
     36 O          32.6837   22.9316   -1.0597 O.2       1 UNK        -0.5103 
     37 C          27.5439   27.9534    3.3948 C.2       5 UNK         0.5055 
     38 O          27.0040   28.5952    4.3001 O.2       5 UNK        -0.5220 
     39 N          28.3038   28.5261    2.4499 N.am      6 UNK        -0.4450 
     40 CA         28.5534   29.9641    2.3456 C.3       6 UNK         0.0367 
     41 CB         29.0417   30.2952    0.9269 C.3       6 UNK        -0.1929 
     42 C          29.5458   30.4472    3.4138 C.2       6 UNK         0.5070 
     43 O          30.7422   30.5576    3.1397 O.2       6 UNK        -0.5237 
     44 N          29.0321   30.7365    4.6159 N.am      7 UNK        -0.4739 
     45 CA         29.7850   31.2273    5.7788 C.3       7 UNK         0.0276 
     46 CB         28.8393   31.3133    6.9867 C.3       7 UNK        -0.1927 
     47 C          30.5022   32.5733    5.5575 C.2       7 UNK         0.5013 
     48 O          31.4753   32.8636    6.2530 O.2       7 UNK        -0.5193 
     49 N          30.0168   33.3619    4.5906 N.am      8 UNK        -0.4253 
     50 CA         30.6225   34.6163    4.1440 C.3       8 UNK         0.0242 
     51 CB         29.5145   35.5139    3.5654 C.3       8 UNK        -0.2000 
     52 C          31.7507   34.4192    3.1107 C.2       8 UNK         0.4948 
     53 O          32.3982   35.4064    2.7574 O.2       8 UNK        -0.5275 
     54 N          31.9562   33.1889    2.6186 N.am      9 UNK        -0.4246 
     55 CA         32.9194   32.8594    1.5716 C.3       9 UNK         0.0261 
     56 CB         32.2133   32.8619    0.1985 C.3       9 UNK        -0.1959 
     57 C          33.6222   31.5414    1.9256 C.2       9 UNK         0.5033 
     58 O          34.4289   31.5278    2.8557 O.2       9 UNK        -0.5390 
     59 N          33.3267   30.4672    1.1817 N.am      10 UNK        -0.4215 
     60 CA         33.9915   29.1610    1.2439 C.3       10 UNK         0.0240 
     61 CB         33.4064   28.2572    0.1486 C.3       10 UNK        -0.1982 
     62 C          33.9529   28.4504    2.6108 C.2       10 UNK         0.4970 
     63 O          34.8935   27.7172    2.9184 O.2       10 UNK        -0.4916 
     64 N          32.8957   28.6774    3.3989 N.am      11 UNK        -0.4279 
     65 CA         32.7649   28.2075    4.7872 C.3       11 UNK         0.1003 
     66 C          33.1349   29.3145    5.8270 C.2       11 UNK         0.5709 
     67 N          33.6347   30.4773    5.4267 N.am      11 UNK        -0.7358 
     68 O          32.9948   29.1213    7.0310 O.2       11 UNK        -0.4999 
     69 C69        31.3691   27.5510    5.0035 C.3       12 UNK        -0.0954 
     70 S70        31.2288   26.5577    6.5275 S.3       12 UNK        -0.2268 
     71 C71        31.7711   24.9071    5.9753 C.3       12 UNK         0.0203 
     72 H72        27.3593   23.6924   -3.7632 H         1 UNK         0.0888 
     73 H73        27.7714   22.0213   -4.1559 H         1 UNK         0.0888 
     74 H74        26.4775   22.3638   -3.0061 H         1 UNK         0.0888 
     75 H75        29.6312   21.4210   -3.1959 H         1 UNK         0.3017 
     76 H76        31.3668   21.1262   -2.0307 H         1 UNK         0.0873 
     77 H77        29.7966   19.8205   -0.6477 H         1 UNK         0.0745 
     78 H78        31.2449   20.2838    0.1787 H         1 UNK         0.0745 
     79 H79        31.4643   21.8938    2.0116 H         1 UNK         0.0705 
     80 H80        30.7560   20.5278    2.8472 H         1 UNK         0.0705 
     81 H81        32.0874   23.1844    3.9148 H         1 UNK         0.1334 
     82 H82        29.0601   24.7766    6.5021 H         1 UNK         0.1417 
     83 H83        28.0227   21.8641    3.5465 H         1 UNK         0.1562 
     84 H84        26.8270   23.9223    6.4456 H         1 UNK         0.0748 
     85 H85        26.5887   22.3680    5.6891 H         1 UNK         0.0748 
     86 H86        26.7074   26.1074    5.3707 H         1 UNK         0.0940 
     87 H87        25.3808   26.4719    4.3081 H         1 UNK         0.0940 
     88 H88        28.2899   25.9689    3.5061 H         1 UNK         0.0703 
     89 H89        27.6676   25.4416    1.4616 H         1 UNK         0.3081 
     90 H90        25.7160   24.6078    0.0163 H         1 UNK         0.0719 
     91 H91        24.3559   27.1382   -1.0508 H         1 UNK         0.0809 
     92 H92        24.3703   25.5680   -1.8536 H         1 UNK         0.0809 
     93 H93        23.5625   25.7608   -0.3062 H         1 UNK         0.0809 
     94 H94        27.4788   25.1145   -1.1828 H         1 UNK         0.2990 
     95 H95        28.4400   26.6616   -3.1818 H         1 UNK         0.0690 
     96 H96        30.1251   28.4577   -3.1558 H         1 UNK         0.0788 
     97 H97        29.5856   28.9990   -1.5725 H         1 UNK         0.0788 
     98 H98        28.5267   29.1560   -2.9678 H         1 UNK         0.0788 
     99 H99        30.1142   25.5545   -2.2389 H         1 UNK         0.2993 
    100 H100       32.1420   25.4862   -0.5807 H         1 UNK         0.0949 
    101 H101       30.7142   24.9834    2.0917 H         1 UNK         0.0767 
    102 H102       32.3498   24.4442    1.7013 H         1 UNK         0.0767 
    103 H103       31.9901   26.1583    1.8205 H         1 UNK         0.0767 
    104 H104       29.7364   23.8073   -0.4440 H         1 UNK         0.3013 
    105 H105       28.7526   27.9399    1.7463 H         1 UNK         0.3121 
    106 H106       27.6093   30.4921    2.4961 H         1 UNK         0.0774 
    107 H107       29.2094   31.3664    0.8140 H         1 UNK         0.0815 
    108 H108       29.9769   29.7860    0.6915 H         1 UNK         0.0815 
    109 H109       28.3015   30.0052    0.1818 H         1 UNK         0.0815 
    110 H110       28.0528   30.5235    4.7652 H         1 UNK         0.2987 
    111 H111       30.5554   30.4918    6.0080 H         1 UNK         0.0949 
    112 H112       28.4012   30.3418    7.2168 H         1 UNK         0.0806 
    113 H113       29.3736   31.6446    7.8785 H         1 UNK         0.0806 
    114 H114       28.0251   32.0180    6.8129 H         1 UNK         0.0806 
    115 H115       29.2038   33.0417    4.0849 H         1 UNK         0.3010 
    116 H116       31.0588   35.1268    5.0054 H         1 UNK         0.0829 
    117 H117       28.7328   35.7043    4.3011 H         1 UNK         0.0813 
    118 H118       29.9132   36.4834    3.2634 H         1 UNK         0.0813 
    119 H119       29.0488   35.0659    2.6867 H         1 UNK         0.0813 
    120 H120       31.4343   32.4014    2.9930 H         1 UNK         0.3038 
    121 H121       33.7087   33.6137    1.5427 H         1 UNK         0.0769 
    122 H122       32.9053   32.6026   -0.6040 H         1 UNK         0.0811 
    123 H123       31.8201   33.8523   -0.0322 H         1 UNK         0.0811 
    124 H124       31.3770   32.1642    0.1626 H         1 UNK         0.0811 
    125 H125       32.6291   30.5779    0.4612 H         1 UNK         0.3204 
    126 H126       35.0448   29.3312    1.0115 H         1 UNK         0.0748 
    127 H127       33.8534   27.2623    0.1772 H         1 UNK         0.0771 
    128 H128       32.3297   28.1417    0.2683 H         1 UNK         0.0771 
    129 H129       33.5914   28.6650   -0.8453 H         1 UNK         0.0771 
    130 H130       32.1816   29.3360    3.0968 H         1 UNK         0.2980 
    131 H131       33.5014   27.4204    4.9547 H         1 UNK         0.0545 
    132 H132       33.8450   31.1764    6.1203 H         1 UNK         0.3459 
    133 H133       33.8208   30.6758    4.4486 H         1 UNK         0.3459 
    134 H134       31.1242   26.9030    4.1602 H         1 UNK         0.0616 
    135 H135       30.5885   28.3092    5.0272 H         1 UNK         0.0616 
    136 H136       32.6464   25.0228    5.3341 H         1 UNK         0.0634 
    137 H137       32.1026   24.3475    6.8507 H         1 UNK         0.0634 
@<TRIPOS>BOND
     1    1    2 1    
     2    1   72 1    
     3    1   73 1    
     4    1   74 1    
     5    2    3 2    
     6    2    4 am   BACKBONE|DICT|INTERRES
     7    4    5 1    
     8    4   75 1    
     9    5    6 1    
    10    5   35 1    
    11    5   76 1    
    12    6    7 1    
    13    6   77 1    
    14    6   78 1    
    15    7    8 1    
    16    8    9 1    
    17    8   79 1    
    18    8   80 1    
    19    9   10 ar   
    20    9   14 ar   
    21   10   11 ar   
    22   10   81 1    
    23   11   12 ar   
    24   11   71 1    
    25   12   13 ar   
    26   12   82 1    
    27   13   14 ar   
    28   13   15 1    
    29   14   83 1    
    30   15   16 1    
    31   15   84 1    
    32   15   85 1    
    33   16   17 1    
    34   17   18 1    
    35   17   86 1    
    36   17   87 1    
    37   18   19 1    
    38   18   37 1    
    39   18   88 1    
    40   19   20 am   BACKBONE|DICT|INTERRES
    41   19   89 1    
    42   20   21 2    
    43   20   22 1    
    44   22   23 1    
    45   22   24 1    
    46   22   90 1    
    47   23   91 1    
    48   23   92 1    
    49   23   93 1    
    50   24   25 am   BACKBONE|DICT|INTERRES
    51   24   94 1    
    52   25   26 2    
    53   25   27 1    
    54   27   28 1    
    55   27   29 1    
    56   27   95 1    
    57   28   96 1    
    58   28   97 1    
    59   28   98 1    
    60   29   30 am   BACKBONE|DICT|INTERRES
    61   29   99 1    
    62   30   31 2    
    63   30   32 1    
    64   32   33 1    
    65   32   34 1    
    66   32  100 1    
    67   33  101 1    
    68   33  102 1    
    69   33  103 1    
    70   34   35 am   BACKBONE|DICT|INTERRES
    71   34  104 1    
    72   35   36 2    
    73   37   38 2    
    74   37   39 am   BACKBONE|DICT|INTERRES
    75   39   40 1    
    76   39  105 1    
    77   40   41 1    
    78   40   42 1    
    79   40  106 1    
    80   41  107 1    
    81   41  108 1    
    82   41  109 1    
    83   42   43 2    
    84   42   44 am   BACKBONE|DICT|INTERRES
    85   44   45 1    
    86   44  110 1    
    87   45   46 1    
    88   45   47 1    
    89   45  111 1    
    90   46  112 1    
    91   46  113 1    
    92   46  114 1    
    93   47   48 2    
    94   47   49 am   BACKBONE|DICT|INTERRES
    95   49   50 1    
    96   49  115 1    
    97   50   51 1    
    98   50   52 1    
    99   50  116 1    
   100   51  117 1    
   101   51  118 1    
   102   51  119 1    
   103   52   53 2    
   104   52   54 am   BACKBONE|DICT|INTERRES
   105   54   55 1    
   106   54  120 1    
   107   55   56 1    
   108   55   57 1    
   109   55  121 1    
   110   56  122 1    
   111   56  123 1    
   112   56  124 1    
   113   57   58 2    
   114   57   59 am   BACKBONE|DICT|INTERRES
   115   59   60 1    
   116   59  125 1    
   117   60   61 1    
   118   60   62 1    
   119   60  126 1    
   120   61  127 1    
   121   61  128 1    
   122   61  129 1    
   123   62   63 2    
   124   62   64 am   BACKBONE|DICT|INTERRES
   125   64   65 1    
   126   64  130 1    
   127   65   66 1    
   128   65   69 1    
   129   65  131 1    
   130   66   67 am   BACKBONE|DICT|INTERRES
   131   66   68 2    
   132   67  132 1    
   133   67  133 1    
   134   69   70 1    
   135   69  134 1    
   136   69  135 1    
   137   70   71 1    
   138   71  136 1    
   139   71  137 1    
@<TRIPOS>SUBSTRUCTURE
     1 UNK         1 GROUP             0       ****    0 ROOT    
