@<TRIPOS>MOLECULE
3R136
137   139    1
SMALL
USER_CHARGES


@<TRIPOS>ATOM
      1 CA         33.8050   19.1246    2.7699 C.3       0 UNK        -0.1979 
      2 C          32.9100   20.3276    2.5121 C.2       0 UNK         0.4864 
      3 O          33.4051   21.4526    2.4330 O.2       0 UNK        -0.5359 
      4 N          31.5960   20.1015    2.3869 N.am      1 UNK        -0.4318 
      5 CA         30.5943   21.1307    2.1033 C.3       1 UNK         0.0824 
      6 C6         29.1590   20.6600    2.4576 C.3       12 UNK        -0.0944 
      7 S7         28.9421   20.4336    4.2555 S.3       12 UNK        -0.2672 
      8 C8         27.6150   21.6326    4.6461 C.3       12 UNK         0.0333 
      9 C9         27.9292   23.0844    4.2813 C.ar      12 UNK        -0.0807 
     10 C10        29.2237   23.6030    4.3956 C.ar      12 UNK        -0.0894 
     11 C11        29.5000   24.9215    4.0280 C.ar      12 UNK        -0.0804 
     12 C12        28.4633   25.7431    3.5799 C.ar      12 UNK        -0.0824 
     13 C13        27.1558   25.2535    3.4954 C.ar      12 UNK        -0.0762 
     14 C14        26.8981   23.9222    3.8399 C.ar      12 UNK        -0.0782 
     15 C15        26.0312   26.1586    3.0094 C.3       12 UNK         0.0230 
     16 S16        25.8046   27.5850    4.1146 S.3       12 UNK        -0.2608 
     17 C17        25.4396   28.9296    2.9367 C.3       12 UNK        -0.0989 
     18 CA         26.7215   29.7226    2.5810 C.3       5 UNK         0.0716 
     19 N          27.5838   29.0083    1.6264 N.am      5 UNK        -0.4135 
     20 C          28.8439   29.3470    1.3217 C.2       4 UNK         0.5031 
     21 O          29.4081   30.3159    1.8332 O.2       4 UNK        -0.5229 
     22 CA         29.6005   28.4922    0.2814 C.3       4 UNK         0.0329 
     23 CB         31.1243   28.5838    0.4732 C.3       4 UNK        -0.2001 
     24 N          29.2217   27.0750    0.2582 N.am      4 UNK        -0.4303 
     25 C          28.0924   26.5682   -0.2544 C.2       3 UNK         0.5044 
     26 O          27.1730   27.2721   -0.6743 O.2       3 UNK        -0.5152 
     27 CA         27.9366   25.0352   -0.2352 C.3       3 UNK         0.0319 
     28 CB         27.0042   24.5134   -1.3486 C.3       3 UNK        -0.2001 
     29 N          29.2137   24.3124   -0.2202 N.am      3 UNK        -0.4354 
     30 C          30.1350   24.2366   -1.1955 C.2       2 UNK         0.4964 
     31 O          30.0329   24.8061   -2.2821 O.2       2 UNK        -0.5047 
     32 CA         31.3952   23.3924   -0.9105 C.3       2 UNK         0.0288 
     33 CB         32.6650   24.2595   -0.9806 C.3       2 UNK        -0.2113 
     34 N          31.3447   22.7161    0.3910 N.am      2 UNK        -0.4145 
     35 C          30.6900   21.5716    0.6308 C.2       1 UNK         0.5006 
     36 O          30.1574   20.8892   -0.2468 O.2       1 UNK        -0.5103 
     37 C          26.3988   31.1598    2.1212 C.2       5 UNK         0.5055 
     38 O          26.2630   32.0430    2.9686 O.2       5 UNK        -0.5220 
     39 N          26.3700   31.3939    0.8002 N.am      6 UNK        -0.4450 
     40 CA         26.2730   32.7238    0.1866 C.3       6 UNK         0.0367 
     41 CB         26.0651   32.5642   -1.3280 C.3       6 UNK        -0.1929 
     42 C          27.4910   33.6291    0.4681 C.2       6 UNK         0.5070 
     43 O          27.3621   34.8502    0.3849 O.2       6 UNK        -0.5237 
     44 N          28.6360   33.0240    0.8126 N.am      7 UNK        -0.4739 
     45 CA         29.8739   33.6923    1.2159 C.3       7 UNK         0.0276 
     46 CB         31.0353   33.1129    0.3871 C.3       7 UNK        -0.1927 
     47 C          30.1218   33.5453    2.7308 C.2       7 UNK         0.5013 
     48 O          31.2699   33.6401    3.1634 O.2       7 UNK        -0.5193 
     49 N          29.0532   33.3068    3.5090 N.am      8 UNK        -0.4253 
     50 CA         29.0368   33.1198    4.9661 C.3       8 UNK         0.0242 
     51 CB         29.4845   34.4033    5.6994 C.3       8 UNK        -0.2000 
     52 C          29.7937   31.8586    5.4304 C.2       8 UNK         0.4948 
     53 O          30.4693   31.8899    6.4604 O.2       8 UNK        -0.5275 
     54 N          29.6393   30.7682    4.6653 N.am      9 UNK        -0.4246 
     55 CA         30.1932   29.4265    4.8847 C.3       9 UNK         0.0261 
     56 CB         29.7081   28.8177    6.2180 C.3       9 UNK        -0.1959 
     57 C          31.7193   29.3690    4.6975 C.2       9 UNK         0.5033 
     58 O          32.3975   28.5961    5.3777 O.2       9 UNK        -0.5390 
     59 N          32.2381   30.1531    3.7432 N.am      10 UNK        -0.4215 
     60 CA         33.6563   30.2188    3.3783 C.3       10 UNK         0.0240 
     61 CB         33.9400   31.5814    2.7199 C.3       10 UNK        -0.1982 
     62 C          34.0944   29.0315    2.4954 C.2       10 UNK         0.4970 
     63 O          34.6208   29.2400    1.4010 O.2       10 UNK        -0.4916 
     64 N          33.8605   27.8052    2.9788 N.am      11 UNK        -0.4279 
     65 CA         34.2621   26.5525    2.3167 C.3       11 UNK         0.1003 
     66 C          35.7923   26.2656    2.3629 C.2       11 UNK         0.5709 
     67 N          36.5734   26.9370    3.2017 N.am      11 UNK        -0.7358 
     68 O          36.2811   25.4230    1.6144 O.2       11 UNK        -0.4999 
     69 C69        33.4601   25.3353    2.8461 C.3       12 UNK        -0.0954 
     70 S70        31.6820   25.4252    2.4513 S.3       12 UNK        -0.2268 
     71 C71        30.9237   25.4443    4.1001 C.3       12 UNK         0.0203 
     72 H72        34.3404   19.2509    3.7105 H         1 UNK         0.0888 
     73 H73        33.2356   18.1969    2.8257 H         1 UNK         0.0888 
     74 H74        34.5386   19.0252    1.9704 H         1 UNK         0.0888 
     75 H75        31.2435   19.1575    2.4548 H         1 UNK         0.3017 
     76 H76        30.8220   22.0001    2.7229 H         1 UNK         0.0873 
     77 H77        28.4185   21.3778    2.0990 H         1 UNK         0.0745 
     78 H78        28.9256   19.7171    1.9594 H         1 UNK         0.0745 
     79 H79        26.7054   21.3055    4.1396 H         1 UNK         0.0705 
     80 H80        27.4069   21.5829    5.7155 H         1 UNK         0.0705 
     81 H81        30.0256   22.9746    4.7569 H         1 UNK         0.1334 
     82 H82        28.6718   26.7660    3.3003 H         1 UNK         0.1417 
     83 H83        25.8904   23.5360    3.7650 H         1 UNK         0.1562 
     84 H84        25.0879   25.6143    2.9424 H         1 UNK         0.0748 
     85 H85        26.2579   26.4973    2.0008 H         1 UNK         0.0748 
     86 H86        24.7079   29.5754    3.4275 H         1 UNK         0.0940 
     87 H87        24.9438   28.5427    2.0445 H         1 UNK         0.0940 
     88 H88        27.2968   29.8390    3.5010 H         1 UNK         0.0703 
     89 H89        27.1648   28.2575    1.0901 H         1 UNK         0.3081 
     90 H90        29.3647   28.9169   -0.6964 H         1 UNK         0.0719 
     91 H91        31.4178   28.2365    1.4630 H         1 UNK         0.0809 
     92 H92        31.6597   27.9861   -0.2648 H         1 UNK         0.0809 
     93 H93        31.4789   29.6098    0.3699 H         1 UNK         0.0809 
     94 H94        29.9050   26.4260    0.6219 H         1 UNK         0.2990 
     95 H95        27.4589   24.7947    0.7138 H         1 UNK         0.0690 
     96 H96        26.9081   23.4283   -1.3099 H         1 UNK         0.0788 
     97 H97        27.3648   24.7841   -2.3414 H         1 UNK         0.0788 
     98 H98        26.0012   24.9293   -1.2456 H         1 UNK         0.0788 
     99 H99        29.4183   23.8238    0.6391 H         1 UNK         0.2993 
    100 H100       31.4597   22.6361   -1.6960 H         1 UNK         0.0949 
    101 H101       32.7974   24.6734   -1.9811 H         1 UNK         0.0767 
    102 H102       32.6252   25.1004   -0.2891 H         1 UNK         0.0767 
    103 H103       33.5585   23.6780   -0.7517 H         1 UNK         0.0767 
    104 H104       31.8048   23.1847    1.1613 H         1 UNK         0.3013 
    105 H105       26.4858   30.6128    0.1706 H         1 UNK         0.3121 
    106 H106       25.3950   33.2219    0.6038 H         1 UNK         0.0774 
    107 H107       26.9075   32.0577   -1.8008 H         1 UNK         0.0815 
    108 H108       25.9576   33.5364   -1.8113 H         1 UNK         0.0815 
    109 H109       25.1619   31.9948   -1.5482 H         1 UNK         0.0815 
    110 H110       28.6502   32.0143    0.8980 H         1 UNK         0.2987 
    111 H111       29.8123   34.7631    1.0107 H         1 UNK         0.0949 
    112 H112       31.1852   32.0530    0.5928 H         1 UNK         0.0806 
    113 H113       30.8527   33.2239   -0.6817 H         1 UNK         0.0806 
    114 H114       31.9723   33.6259    0.6076 H         1 UNK         0.0806 
    115 H115       28.1519   33.2165    3.0547 H         1 UNK         0.3010 
    116 H116       27.9919   32.9472    5.2294 H         1 UNK         0.0829 
    117 H117       30.5430   34.6129    5.5428 H         1 UNK         0.0813 
    118 H118       28.9165   35.2710    5.3643 H         1 UNK         0.0813 
    119 H119       29.3294   34.3120    6.7752 H         1 UNK         0.0813 
    120 H120       29.1628   30.8847    3.7780 H         1 UNK         0.3038 
    121 H121       29.7834   28.8021    4.0915 H         1 UNK         0.0769 
    122 H122       30.0015   27.7711    6.3025 H         1 UNK         0.0811 
    123 H123       30.1265   29.3381    7.0797 H         1 UNK         0.0811 
    124 H124       28.6215   28.8529    6.2965 H         1 UNK         0.0811 
    125 H125       31.6051   30.7331    3.2089 H         1 UNK         0.3204 
    126 H126       34.2515   30.1689    4.2926 H         1 UNK         0.0748 
    127 H127       34.9967   31.6860    2.4704 H         1 UNK         0.0771 
    128 H128       33.3715   31.7108    1.7987 H         1 UNK         0.0771 
    129 H129       33.6866   32.4039    3.3889 H         1 UNK         0.0771 
    130 H130       33.4181   27.7265    3.8886 H         1 UNK         0.2980 
    131 H131       34.0214   26.6595    1.2572 H         1 UNK         0.0545 
    132 H132       37.5623   26.7435    3.2157 H         1 UNK         0.3459 
    133 H133       36.1848   27.6263    3.8243 H         1 UNK         0.3459 
    134 H134       33.8276   24.4092    2.3992 H         1 UNK         0.0616 
    135 H135       33.6064   25.2264    3.9218 H         1 UNK         0.0616 
    136 H136       30.9357   26.4592    4.4932 H         1 UNK         0.0634 
    137 H137       31.5094   24.8350    4.7899 H         1 UNK         0.0634 
@<TRIPOS>BOND
     1    1    2 1    
     2    1   72 1    
     3    1   73 1    
     4    1   74 1    
     5    2    3 2    
     6    2    4 am   BACKBONE|DICT|INTERRES
     7    4    5 1    
     8    4   75 1    
     9    5    6 1    
    10    5   35 1    
    11    5   76 1    
    12    6    7 1    
    13    6   77 1    
    14    6   78 1    
    15    7    8 1    
    16    8    9 1    
    17    8   79 1    
    18    8   80 1    
    19    9   10 ar   
    20    9   14 ar   
    21   10   11 ar   
    22   10   81 1    
    23   11   12 ar   
    24   11   71 1    
    25   12   13 ar   
    26   12   82 1    
    27   13   14 ar   
    28   13   15 1    
    29   14   83 1    
    30   15   16 1    
    31   15   84 1    
    32   15   85 1    
    33   16   17 1    
    34   17   18 1    
    35   17   86 1    
    36   17   87 1    
    37   18   19 1    
    38   18   37 1    
    39   18   88 1    
    40   19   20 am   BACKBONE|DICT|INTERRES
    41   19   89 1    
    42   20   21 2    
    43   20   22 1    
    44   22   23 1    
    45   22   24 1    
    46   22   90 1    
    47   23   91 1    
    48   23   92 1    
    49   23   93 1    
    50   24   25 am   BACKBONE|DICT|INTERRES
    51   24   94 1    
    52   25   26 2    
    53   25   27 1    
    54   27   28 1    
    55   27   29 1    
    56   27   95 1    
    57   28   96 1    
    58   28   97 1    
    59   28   98 1    
    60   29   30 am   BACKBONE|DICT|INTERRES
    61   29   99 1    
    62   30   31 2    
    63   30   32 1    
    64   32   33 1    
    65   32   34 1    
    66   32  100 1    
    67   33  101 1    
    68   33  102 1    
    69   33  103 1    
    70   34   35 am   BACKBONE|DICT|INTERRES
    71   34  104 1    
    72   35   36 2    
    73   37   38 2    
    74   37   39 am   BACKBONE|DICT|INTERRES
    75   39   40 1    
    76   39  105 1    
    77   40   41 1    
    78   40   42 1    
    79   40  106 1    
    80   41  107 1    
    81   41  108 1    
    82   41  109 1    
    83   42   43 2    
    84   42   44 am   BACKBONE|DICT|INTERRES
    85   44   45 1    
    86   44  110 1    
    87   45   46 1    
    88   45   47 1    
    89   45  111 1    
    90   46  112 1    
    91   46  113 1    
    92   46  114 1    
    93   47   48 2    
    94   47   49 am   BACKBONE|DICT|INTERRES
    95   49   50 1    
    96   49  115 1    
    97   50   51 1    
    98   50   52 1    
    99   50  116 1    
   100   51  117 1    
   101   51  118 1    
   102   51  119 1    
   103   52   53 2    
   104   52   54 am   BACKBONE|DICT|INTERRES
   105   54   55 1    
   106   54  120 1    
   107   55   56 1    
   108   55   57 1    
   109   55  121 1    
   110   56  122 1    
   111   56  123 1    
   112   56  124 1    
   113   57   58 2    
   114   57   59 am   BACKBONE|DICT|INTERRES
   115   59   60 1    
   116   59  125 1    
   117   60   61 1    
   118   60   62 1    
   119   60  126 1    
   120   61  127 1    
   121   61  128 1    
   122   61  129 1    
   123   62   63 2    
   124   62   64 am   BACKBONE|DICT|INTERRES
   125   64   65 1    
   126   64  130 1    
   127   65   66 1    
   128   65   69 1    
   129   65  131 1    
   130   66   67 am   BACKBONE|DICT|INTERRES
   131   66   68 2    
   132   67  132 1    
   133   67  133 1    
   134   69   70 1    
   135   69  134 1    
   136   69  135 1    
   137   70   71 1    
   138   71  136 1    
   139   71  137 1    
@<TRIPOS>SUBSTRUCTURE
     1 UNK         1 GROUP             0       ****    0 ROOT    
