@<TRIPOS>MOLECULE
3R136
137   139    1
SMALL
USER_CHARGES


@<TRIPOS>ATOM
      1 CA         26.1735   18.6154    2.2764 C.3       0 UNK        -0.1979 
      2 C          27.2828   18.7796    1.2484 C.2       0 UNK         0.4864 
      3 O          27.2320   18.1559    0.1875 O.2       0 UNK        -0.5359 
      4 N          28.2843   19.6156    1.5533 N.am      1 UNK        -0.4318 
      5 CA         29.4252   19.9252    0.6811 C.3       1 UNK         0.0824 
      6 C6         30.6111   20.5474    1.4668 C.3       12 UNK        -0.0944 
      7 S7         30.1619   21.8965    2.6170 S.3       12 UNK        -0.2672 
      8 C8         30.3687   23.3690    1.5633 C.3       12 UNK         0.0333 
      9 C9         30.3278   24.6710    2.3556 C.ar      12 UNK        -0.0807 
     10 C10        31.3339   25.6247    2.1775 C.ar      12 UNK        -0.0894 
     11 C11        31.3173   26.8351    2.8780 C.ar      12 UNK        -0.0804 
     12 C12        30.2656   27.0838    3.7717 C.ar      12 UNK        -0.0824 
     13 C13        29.2574   26.1347    3.9704 C.ar      12 UNK        -0.0762 
     14 C14        29.2866   24.9375    3.2504 C.ar      12 UNK        -0.0782 
     15 C15        28.1523   26.3857    4.9882 C.3       12 UNK         0.0230 
     16 S16        26.5400   26.6960    4.2022 S.3       12 UNK        -0.2608 
     17 C17        26.8716   28.2363    3.2854 C.3       12 UNK        -0.0989 
     18 CA         26.9946   27.9798    1.7636 C.3       5 UNK         0.0716 
     19 N          25.7348   27.4897    1.2001 N.am      5 UNK        -0.4135 
     20 C          25.6113   26.8958    0.0099 C.2       4 UNK         0.5031 
     21 O          26.5550   26.6565   -0.7487 O.2       4 UNK        -0.5229 
     22 CA         24.1896   26.5084   -0.4093 C.3       4 UNK         0.0329 
     23 CB         23.4920   27.6657   -1.1462 C.3       4 UNK        -0.2001 
     24 N          24.2798   25.3418   -1.2784 N.am      4 UNK        -0.4303 
     25 C          23.3366   24.4079   -1.4425 C.2       3 UNK         0.5044 
     26 O          22.2176   24.4662   -0.9309 O.2       3 UNK        -0.5152 
     27 CA         23.7002   23.1946   -2.3205 C.3       3 UNK         0.0319 
     28 CB         23.1749   23.3918   -3.7519 C.3       3 UNK        -0.2001 
     29 N          25.1402   22.9142   -2.3688 N.am      3 UNK        -0.4354 
     30 C          25.8603   22.4576   -1.3353 C.2       2 UNK         0.4964 
     31 O          25.3866   22.1899   -0.2271 O.2       2 UNK        -0.5047 
     32 CA         27.3654   22.2986   -1.5768 C.3       2 UNK         0.0288 
     33 CB         28.0678   23.6695   -1.6263 C.3       2 UNK        -0.2113 
     34 N          27.9222   21.4872   -0.4994 N.am      2 UNK        -0.4145 
     35 C          29.0513   20.7716   -0.5567 C.2       1 UNK         0.5006 
     36 O          29.7948   20.7553   -1.5397 O.2       1 UNK        -0.5103 
     37 C          27.4410   29.2673    1.0482 C.2       5 UNK         0.5055 
     38 O          26.5978   30.1093    0.7276 O.2       5 UNK        -0.5220 
     39 N          28.7594   29.4226    0.8625 N.am      6 UNK        -0.4450 
     40 CA         29.3676   30.6488    0.3336 C.3       6 UNK         0.0367 
     41 CB         30.8026   30.3560   -0.1329 C.3       6 UNK        -0.1929 
     42 C          29.3555   31.8035    1.3526 C.2       6 UNK         0.5070 
     43 O          29.2996   32.9632    0.9439 O.2       6 UNK        -0.5237 
     44 N          29.4063   31.4592    2.6507 N.am      7 UNK        -0.4739 
     45 CA         29.3786   32.3532    3.8189 C.3       7 UNK         0.0276 
     46 CB         28.0051   33.0472    3.9385 C.3       7 UNK        -0.1927 
     47 C          30.5583   33.3472    3.8758 C.2       7 UNK         0.5013 
     48 O          30.4196   34.4396    4.4303 O.2       7 UNK        -0.5193 
     49 N          31.7002   32.9443    3.3080 N.am      8 UNK        -0.4253 
     50 CA         32.9618   33.6795    3.3358 C.3       8 UNK         0.0242 
     51 CB         33.7632   33.3051    2.0764 C.3       8 UNK        -0.2000 
     52 C          33.7597   33.3213    4.5974 C.2       8 UNK         0.4948 
     53 O          33.5092   32.2811    5.2099 O.2       8 UNK        -0.5275 
     54 N          34.7721   34.1390    4.9204 N.am      9 UNK        -0.4246 
     55 CA         35.7370   33.8761    5.9996 C.3       9 UNK         0.0261 
     56 CB         36.6952   35.0702    6.1353 C.3       9 UNK        -0.1959 
     57 C          36.5279   32.5661    5.8076 C.2       9 UNK         0.5033 
     58 O          36.8938   31.9236    6.7930 O.2       9 UNK        -0.5390 
     59 N          36.7195   32.1669    4.5416 N.am      10 UNK        -0.4215 
     60 CA         37.2952   30.8890    4.1193 C.3       10 UNK         0.0240 
     61 CB         37.4661   30.9009    2.5911 C.3       10 UNK        -0.1982 
     62 C          36.4866   29.6512    4.5564 C.2       10 UNK         0.4970 
     63 O          37.0649   28.5651    4.6131 O.2       10 UNK        -0.4916 
     64 N          35.1908   29.8172    4.8639 N.am      11 UNK        -0.4279 
     65 CA         34.3393   28.7558    5.4226 C.3       11 UNK         0.1003 
     66 C          34.6184   28.4489    6.9246 C.2       11 UNK         0.5709 
     67 N          35.4013   29.2489    7.6422 N.am      11 UNK        -0.7358 
     68 O          34.1212   27.4548    7.4482 O.2       11 UNK        -0.4999 
     69 C69        32.8247   29.0104    5.1855 C.3       12 UNK        -0.0954 
     70 S70        32.3783   29.4330    3.4644 S.3       12 UNK        -0.2268 
     71 C71        32.4707   27.8118    2.6293 C.3       12 UNK         0.0203 
     72 H72        25.2216   18.9369    1.8542 H         1 UNK         0.0888 
     73 H73        26.0825   17.5692    2.5671 H         1 UNK         0.0888 
     74 H74        26.3609   19.2019    3.1757 H         1 UNK         0.0888 
     75 H75        28.2823   20.1014    2.4401 H         1 UNK         0.3017 
     76 H76        29.7805   18.9736    0.2791 H         1 UNK         0.0873 
     77 H77        31.0707   19.7654    2.0732 H         1 UNK         0.0745 
     78 H78        31.4037   20.8807    0.7935 H         1 UNK         0.0745 
     79 H79        29.5761   23.3920    0.8179 H         1 UNK         0.0705 
     80 H80        31.3097   23.2843    1.0174 H         1 UNK         0.0705 
     81 H81        32.1418   25.4244    1.4864 H         1 UNK         0.1334 
     82 H82        30.2277   28.0054    4.3330 H         1 UNK         0.1417 
     83 H83        28.5025   24.2069    3.3971 H         1 UNK         0.1562 
     84 H84        28.4030   27.2249    5.6392 H         1 UNK         0.0748 
     85 H85        28.0626   25.5152    5.6397 H         1 UNK         0.0748 
     86 H86        27.7766   28.7000    3.6816 H         1 UNK         0.0940 
     87 H87        26.0643   28.9415    3.4939 H         1 UNK         0.0940 
     88 H88        27.7578   27.2151    1.5990 H         1 UNK         0.0703 
     89 H89        24.9068   27.6698    1.7480 H         1 UNK         0.3081 
     90 H90        23.6211   26.2467    0.4860 H         1 UNK         0.0719 
     91 H91        24.0297   27.9460   -2.0530 H         1 UNK         0.0809 
     92 H92        22.4734   27.4000   -1.4296 H         1 UNK         0.0809 
     93 H93        23.4316   28.5530   -0.5147 H         1 UNK         0.0809 
     94 H94        25.1910   25.2099   -1.6992 H         1 UNK         0.2990 
     95 H95        23.2017   22.3222   -1.8922 H         1 UNK         0.0690 
     96 H96        23.3510   22.5080   -4.3655 H         1 UNK         0.0788 
     97 H97        23.6482   24.2432   -4.2428 H         1 UNK         0.0788 
     98 H98        22.0991   23.5736   -3.7508 H         1 UNK         0.0788 
     99 H99        25.6086   23.1075   -3.2430 H         1 UNK         0.2993 
    100 H100       27.5063   21.7756   -2.5255 H         1 UNK         0.0949 
    101 H101       27.9146   24.2322   -0.7045 H         1 UNK         0.0767 
    102 H102       29.1419   23.5637   -1.7796 H         1 UNK         0.0767 
    103 H103       27.6874   24.2811   -2.4451 H         1 UNK         0.0767 
    104 H104       27.3255   21.4149    0.3157 H         1 UNK         0.3013 
    105 H105       29.3875   28.6784    1.1319 H         1 UNK         0.3121 
    106 H106       28.7897   30.9709   -0.5358 H         1 UNK         0.0774 
    107 H107       31.4430   30.0439    0.6910 H         1 UNK         0.0815 
    108 H108       31.2555   31.2448   -0.5744 H         1 UNK         0.0815 
    109 H109       30.8230   29.5731   -0.8912 H         1 UNK         0.0815 
    110 H110       29.4857   30.4753    2.8615 H         1 UNK         0.2987 
    111 H111       29.4972   31.7114    4.6935 H         1 UNK         0.0949 
    112 H112       27.1911   32.3225    3.9168 H         1 UNK         0.0806 
    113 H113       27.9228   33.5963    4.8773 H         1 UNK         0.0806 
    114 H114       27.8411   33.7602    3.1300 H         1 UNK         0.0806 
    115 H115       31.7382   32.0022    2.9465 H         1 UNK         0.3010 
    116 H116       32.7640   34.7537    3.3313 H         1 UNK         0.0829 
    117 H117       34.6958   33.8673    2.0166 H         1 UNK         0.0813 
    118 H118       34.0174   32.2440    2.0589 H         1 UNK         0.0813 
    119 H119       33.1985   33.5261    1.1702 H         1 UNK         0.0813 
    120 H120       34.9185   34.9763    4.3738 H         1 UNK         0.3038 
    121 H121       35.1730   33.7806    6.9299 H         1 UNK         0.0769 
    122 H122       37.2714   35.2337    5.2237 H         1 UNK         0.0811 
    123 H123       37.4074   34.9077    6.9458 H         1 UNK         0.0811 
    124 H124       36.1551   35.9896    6.3621 H         1 UNK         0.0811 
    125 H125       36.3879   32.7734    3.8068 H         1 UNK         0.3204 
    126 H126       38.2834   30.8068    4.5765 H         1 UNK         0.0748 
    127 H127       37.9274   29.9756    2.2422 H         1 UNK         0.0771 
    128 H128       36.5084   31.0001    2.0783 H         1 UNK         0.0771 
    129 H129       38.1084   31.7206    2.2683 H         1 UNK         0.0771 
    130 H130       34.7668   30.7378    4.8264 H         1 UNK         0.2980 
    131 H131       34.5877   27.8350    4.8928 H         1 UNK         0.0545 
    132 H132       35.5718   29.0282    8.6102 H         1 UNK         0.3459 
    133 H133       35.8237   30.0724    7.2323 H         1 UNK         0.3459 
    134 H134       32.4814   29.8318    5.8167 H         1 UNK         0.0616 
    135 H135       32.2489   28.1370    5.4934 H         1 UNK         0.0616 
    136 H136       32.5304   28.0017    1.5570 H         1 UNK         0.0634 
    137 H137       33.4100   27.3290    2.9007 H         1 UNK         0.0634 
@<TRIPOS>BOND
     1    1    2 1    
     2    1   72 1    
     3    1   73 1    
     4    1   74 1    
     5    2    3 2    
     6    2    4 am   BACKBONE|DICT|INTERRES
     7    4    5 1    
     8    4   75 1    
     9    5    6 1    
    10    5   35 1    
    11    5   76 1    
    12    6    7 1    
    13    6   77 1    
    14    6   78 1    
    15    7    8 1    
    16    8    9 1    
    17    8   79 1    
    18    8   80 1    
    19    9   10 ar   
    20    9   14 ar   
    21   10   11 ar   
    22   10   81 1    
    23   11   12 ar   
    24   11   71 1    
    25   12   13 ar   
    26   12   82 1    
    27   13   14 ar   
    28   13   15 1    
    29   14   83 1    
    30   15   16 1    
    31   15   84 1    
    32   15   85 1    
    33   16   17 1    
    34   17   18 1    
    35   17   86 1    
    36   17   87 1    
    37   18   19 1    
    38   18   37 1    
    39   18   88 1    
    40   19   20 am   BACKBONE|DICT|INTERRES
    41   19   89 1    
    42   20   21 2    
    43   20   22 1    
    44   22   23 1    
    45   22   24 1    
    46   22   90 1    
    47   23   91 1    
    48   23   92 1    
    49   23   93 1    
    50   24   25 am   BACKBONE|DICT|INTERRES
    51   24   94 1    
    52   25   26 2    
    53   25   27 1    
    54   27   28 1    
    55   27   29 1    
    56   27   95 1    
    57   28   96 1    
    58   28   97 1    
    59   28   98 1    
    60   29   30 am   BACKBONE|DICT|INTERRES
    61   29   99 1    
    62   30   31 2    
    63   30   32 1    
    64   32   33 1    
    65   32   34 1    
    66   32  100 1    
    67   33  101 1    
    68   33  102 1    
    69   33  103 1    
    70   34   35 am   BACKBONE|DICT|INTERRES
    71   34  104 1    
    72   35   36 2    
    73   37   38 2    
    74   37   39 am   BACKBONE|DICT|INTERRES
    75   39   40 1    
    76   39  105 1    
    77   40   41 1    
    78   40   42 1    
    79   40  106 1    
    80   41  107 1    
    81   41  108 1    
    82   41  109 1    
    83   42   43 2    
    84   42   44 am   BACKBONE|DICT|INTERRES
    85   44   45 1    
    86   44  110 1    
    87   45   46 1    
    88   45   47 1    
    89   45  111 1    
    90   46  112 1    
    91   46  113 1    
    92   46  114 1    
    93   47   48 2    
    94   47   49 am   BACKBONE|DICT|INTERRES
    95   49   50 1    
    96   49  115 1    
    97   50   51 1    
    98   50   52 1    
    99   50  116 1    
   100   51  117 1    
   101   51  118 1    
   102   51  119 1    
   103   52   53 2    
   104   52   54 am   BACKBONE|DICT|INTERRES
   105   54   55 1    
   106   54  120 1    
   107   55   56 1    
   108   55   57 1    
   109   55  121 1    
   110   56  122 1    
   111   56  123 1    
   112   56  124 1    
   113   57   58 2    
   114   57   59 am   BACKBONE|DICT|INTERRES
   115   59   60 1    
   116   59  125 1    
   117   60   61 1    
   118   60   62 1    
   119   60  126 1    
   120   61  127 1    
   121   61  128 1    
   122   61  129 1    
   123   62   63 2    
   124   62   64 am   BACKBONE|DICT|INTERRES
   125   64   65 1    
   126   64  130 1    
   127   65   66 1    
   128   65   69 1    
   129   65  131 1    
   130   66   67 am   BACKBONE|DICT|INTERRES
   131   66   68 2    
   132   67  132 1    
   133   67  133 1    
   134   69   70 1    
   135   69  134 1    
   136   69  135 1    
   137   70   71 1    
   138   71  136 1    
   139   71  137 1    
@<TRIPOS>SUBSTRUCTURE
     1 UNK         1 GROUP             0       ****    0 ROOT    
