@<TRIPOS>MOLECULE
3R136
137   139    1
SMALL
USER_CHARGES


@<TRIPOS>ATOM
      1 CA         32.9468   23.7354   -4.2302 C.3       0 UNK        -0.1979 
      2 C          32.2995   24.7286   -3.2758 C.2       0 UNK         0.4864 
      3 O          32.3771   25.9360   -3.5076 O.2       0 UNK        -0.5359 
      4 N          31.6705   24.2267   -2.2052 N.am      1 UNK        -0.4318 
      5 CA         30.9605   25.0162   -1.1913 C.3       1 UNK         0.0824 
      6 C6         30.6288   24.1682    0.0634 C.3       12 UNK        -0.0944 
      7 S7         32.1445   23.5533    0.8661 S.3       12 UNK        -0.2672 
      8 C8         31.4691   22.3856    2.0872 C.3       12 UNK         0.0333 
      9 C9         30.9253   23.0696    3.3367 C.ar      12 UNK        -0.0807 
     10 C10        31.7502   23.8954    4.1072 C.ar      12 UNK        -0.0894 
     11 C11        31.2921   24.4432    5.3093 C.ar      12 UNK        -0.0804 
     12 C12        29.9880   24.1636    5.7333 C.ar      12 UNK        -0.0824 
     13 C13        29.1438   23.3483    4.9706 C.ar      12 UNK        -0.0762 
     14 C14        29.6236   22.8044    3.7723 C.ar      12 UNK        -0.0782 
     15 C15        27.7542   22.9952    5.5020 C.3       12 UNK         0.0230 
     16 S16        26.4616   22.8984    4.2153 S.3       12 UNK        -0.2608 
     17 C17        25.7799   24.5891    4.2027 C.3       12 UNK        -0.0989 
     18 CA         26.5433   25.5351    3.2319 C.3       5 UNK         0.0716 
     19 N          25.6748   26.4354    2.4730 N.am      5 UNK        -0.4135 
     20 C          24.7997   27.3289    2.9601 C.2       4 UNK         0.5031 
     21 O          24.5289   27.4411    4.1562 O.2       4 UNK        -0.5229 
     22 CA         24.1095   28.2788    1.9566 C.3       4 UNK         0.0329 
     23 CB         24.5769   29.7269    2.1850 C.3       4 UNK        -0.2001 
     24 N          24.3425   27.9318    0.5524 N.am      4 UNK        -0.4303 
     25 C          23.8193   26.8757   -0.0861 C.2       3 UNK         0.5044 
     26 O          22.9724   26.1300    0.4060 O.2       3 UNK        -0.5152 
     27 CA         24.3643   26.5742   -1.4967 C.3       3 UNK         0.0319 
     28 CB         23.3820   27.0742   -2.5683 C.3       3 UNK        -0.2001 
     29 N          25.6994   27.1273   -1.7711 N.am      3 UNK        -0.4354 
     30 C          26.8201   26.8346   -1.0949 C.2       2 UNK         0.4964 
     31 O          26.8559   26.0939   -0.1088 O.2       2 UNK        -0.5047 
     32 CA         28.0952   27.5610   -1.5482 C.3       2 UNK         0.0288 
     33 CB         28.1785   28.9468   -0.8847 C.3       2 UNK        -0.2113 
     34 N          29.2982   26.8064   -1.2017 N.am      2 UNK        -0.4145 
     35 C          29.6850   25.6607   -1.7735 C.2       1 UNK         0.5006 
     36 O          29.0774   25.1152   -2.7005 O.2       1 UNK        -0.5103 
     37 C          27.6665   26.3561    3.8921 C.2       5 UNK         0.5055 
     38 O          27.6890   26.5294    5.1125 O.2       5 UNK        -0.5220 
     39 N          28.5545   26.8920    3.0486 N.am      6 UNK        -0.4450 
     40 CA         29.7188   27.6698    3.4490 C.3       6 UNK         0.0367 
     41 CB         29.3367   29.1504    3.5772 C.3       6 UNK        -0.1929 
     42 C          30.8147   27.4721    2.4032 C.2       6 UNK         0.5070 
     43 O          30.4918   27.3456    1.2211 O.2       6 UNK        -0.5237 
     44 N          32.0791   27.4614    2.8413 N.am      7 UNK        -0.4739 
     45 CA         33.2433   27.2155    1.9840 C.3       7 UNK         0.0276 
     46 CB         34.5004   27.0394    2.8507 C.3       7 UNK        -0.1927 
     47 C          33.4605   28.3043    0.9204 C.2       7 UNK         0.5013 
     48 O          33.7006   27.9759   -0.2416 O.2       7 UNK        -0.5193 
     49 N          33.3572   29.5717    1.3344 N.am      8 UNK        -0.4253 
     50 CA         33.4855   30.7484    0.4788 C.3       8 UNK         0.0242 
     51 CB         34.9739   31.0588    0.2173 C.3       8 UNK        -0.2000 
     52 C          32.7501   31.9002    1.1677 C.2       8 UNK         0.4948 
     53 O          33.3891   32.7496    1.7901 O.2       8 UNK        -0.5275 
     54 N          31.4096   31.8481    1.1382 N.am      9 UNK        -0.4246 
     55 CA         30.4393   32.7246    1.8242 C.3       9 UNK         0.0261 
     56 CB         30.6044   34.2012    1.4136 C.3       9 UNK        -0.1959 
     57 C          30.4177   32.5695    3.3591 C.2       9 UNK         0.5033 
     58 O          29.3430   32.6435    3.9554 O.2       9 UNK        -0.5390 
     59 N          31.5803   32.3011    3.9567 N.am      10 UNK        -0.4215 
     60 CA         31.7804   31.8121    5.3156 C.3       10 UNK         0.0240 
     61 CB         32.4526   32.9173    6.1483 C.3       10 UNK        -0.1982 
     62 C          32.6634   30.5550    5.2487 C.2       10 UNK         0.4970 
     63 O          33.2341   30.2567    4.1947 O.2       10 UNK        -0.4916 
     64 N          32.7595   29.8401    6.3737 N.am      11 UNK        -0.4279 
     65 CA         33.6536   28.6817    6.5505 C.3       11 UNK         0.1003 
     66 C          35.0943   29.0609    7.0038 C.2       11 UNK         0.5709 
     67 N          35.4017   30.3242    7.2749 N.am      11 UNK        -0.7358 
     68 O          35.9576   28.1916    7.0951 O.2       11 UNK        -0.4999 
     69 C69        33.0218   27.6132    7.4801 C.3       12 UNK        -0.0954 
     70 S70        31.5489   26.8531    6.7219 S.3       12 UNK        -0.2268 
     71 C71        32.2433   25.2593    6.1792 C.3       12 UNK         0.0203 
     72 H72        34.0159   23.9317   -4.3078 H         1 UNK         0.0888 
     73 H73        32.8148   22.7055   -3.8987 H         1 UNK         0.0888 
     74 H74        32.5092   23.8304   -5.2236 H         1 UNK         0.0888 
     75 H75        31.6367   23.2265   -2.0735 H         1 UNK         0.3017 
     76 H76        31.6264   25.8282   -0.8876 H         1 UNK         0.0873 
     77 H77        30.0725   24.7516    0.7991 H         1 UNK         0.0745 
     78 H78        29.9929   23.3214   -0.2020 H         1 UNK         0.0745 
     79 H79        30.7077   21.7662    1.6108 H         1 UNK         0.0705 
     80 H80        32.2668   21.7058    2.3896 H         1 UNK         0.0705 
     81 H81        32.7648   24.0811    3.7820 H         1 UNK         0.1334 
     82 H82        29.6366   24.5686    6.6727 H         1 UNK         0.1417 
     83 H83        28.9935   22.1422    3.1945 H         1 UNK         0.1562 
     84 H84        27.4437   23.7023    6.2729 H         1 UNK         0.0748 
     85 H85        27.8204   22.0226    5.9910 H         1 UNK         0.0748 
     86 H86        25.7070   24.9863    5.2166 H         1 UNK         0.0940 
     87 H87        24.7454   24.4841    3.8720 H         1 UNK         0.0940 
     88 H88        27.0220   24.9167    2.4701 H         1 UNK         0.0703 
     89 H89        25.8487   26.4271    1.4719 H         1 UNK         0.3081 
     90 H90        23.0355   28.2286    2.1480 H         1 UNK         0.0719 
     91 H91        25.6485   29.8378    2.0129 H         1 UNK         0.0809 
     92 H92        24.0555   30.4221    1.5266 H         1 UNK         0.0809 
     93 H93        24.3781   30.0455    3.2093 H         1 UNK         0.0809 
     94 H94        25.0160   28.4946    0.0543 H         1 UNK         0.2990 
     95 H95        24.4398   25.4882   -1.5830 H         1 UNK         0.0690 
     96 H96        23.6990   26.7774   -3.5683 H         1 UNK         0.0788 
     97 H97        23.2864   28.1608   -2.5533 H         1 UNK         0.0788 
     98 H98        22.3860   26.6576   -2.4107 H         1 UNK         0.0788 
     99 H99        25.7620   27.7662   -2.5514 H         1 UNK         0.2993 
    100 H100       28.0676   27.6816   -2.6334 H         1 UNK         0.0949 
    101 H101       28.2006   28.8721    0.2037 H         1 UNK         0.0767 
    102 H102       29.0749   29.4817   -1.1993 H         1 UNK         0.0767 
    103 H103       27.3227   29.5672   -1.1538 H         1 UNK         0.0767 
    104 H104       29.8118   27.1260   -0.3797 H         1 UNK         0.3013 
    105 H105       28.4986   26.6974    2.0564 H         1 UNK         0.3121 
    106 H106       30.0813   27.2995    4.4065 H         1 UNK         0.0774 
    107 H107       28.9750   29.5605    2.6336 H         1 UNK         0.0815 
    108 H108       30.1996   29.7370    3.8827 H         1 UNK         0.0815 
    109 H109       28.5614   29.3000    4.3287 H         1 UNK         0.0815 
    110 H110       32.2580   27.6052    3.8244 H         1 UNK         0.2987 
    111 H111       33.0661   26.2783    1.4537 H         1 UNK         0.0949 
    112 H112       34.7457   27.9489    3.3999 H         1 UNK         0.0806 
    113 H113       34.3796   26.2299    3.5701 H         1 UNK         0.0806 
    114 H114       35.3644   26.7933    2.2319 H         1 UNK         0.0806 
    115 H115       33.1895   29.7527    2.3222 H         1 UNK         0.3010 
    116 H116       32.9937   30.5616   -0.4785 H         1 UNK         0.0829 
    117 H117       35.0847   31.9713   -0.3698 H         1 UNK         0.0813 
    118 H118       35.5259   31.1979    1.1478 H         1 UNK         0.0813 
    119 H119       35.4563   30.2555   -0.3396 H         1 UNK         0.0813 
    120 H120       30.9943   31.0747    0.6366 H         1 UNK         0.3038 
    121 H121       29.4587   32.3994    1.4722 H         1 UNK         0.0769 
    122 H122       31.5449   34.6240    1.7677 H         1 UNK         0.0811 
    123 H123       29.8018   34.8103    1.8316 H         1 UNK         0.0811 
    124 H124       30.5696   34.3184    0.3306 H         1 UNK         0.0811 
    125 H125       32.4074   32.2756    3.3639 H         1 UNK         0.3204 
    126 H126       30.8242   31.5385    5.7667 H         1 UNK         0.0748 
    127 H127       32.5870   32.6088    7.1855 H         1 UNK         0.0771 
    128 H128       33.4342   33.1809    5.7517 H         1 UNK         0.0771 
    129 H129       31.8458   33.8231    6.1599 H         1 UNK         0.0771 
    130 H130       32.2554   30.1376    7.1961 H         1 UNK         0.2980 
    131 H131       33.7924   28.2058    5.5791 H         1 UNK         0.0545 
    132 H132       36.3417   30.5501    7.5599 H         1 UNK         0.3459 
    133 H133       34.7105   31.0512    7.1964 H         1 UNK         0.3459 
    134 H134       32.7337   28.0573    8.4343 H         1 UNK         0.0616 
    135 H135       33.7360   26.8234    7.7203 H         1 UNK         0.0616 
    136 H136       33.1741   25.4527    5.6441 H         1 UNK         0.0634 
    137 H137       32.5072   24.6700    7.0584 H         1 UNK         0.0634 
@<TRIPOS>BOND
     1    1    2 1    
     2    1   72 1    
     3    1   73 1    
     4    1   74 1    
     5    2    3 2    
     6    2    4 am   BACKBONE|DICT|INTERRES
     7    4    5 1    
     8    4   75 1    
     9    5    6 1    
    10    5   35 1    
    11    5   76 1    
    12    6    7 1    
    13    6   77 1    
    14    6   78 1    
    15    7    8 1    
    16    8    9 1    
    17    8   79 1    
    18    8   80 1    
    19    9   10 ar   
    20    9   14 ar   
    21   10   11 ar   
    22   10   81 1    
    23   11   12 ar   
    24   11   71 1    
    25   12   13 ar   
    26   12   82 1    
    27   13   14 ar   
    28   13   15 1    
    29   14   83 1    
    30   15   16 1    
    31   15   84 1    
    32   15   85 1    
    33   16   17 1    
    34   17   18 1    
    35   17   86 1    
    36   17   87 1    
    37   18   19 1    
    38   18   37 1    
    39   18   88 1    
    40   19   20 am   BACKBONE|DICT|INTERRES
    41   19   89 1    
    42   20   21 2    
    43   20   22 1    
    44   22   23 1    
    45   22   24 1    
    46   22   90 1    
    47   23   91 1    
    48   23   92 1    
    49   23   93 1    
    50   24   25 am   BACKBONE|DICT|INTERRES
    51   24   94 1    
    52   25   26 2    
    53   25   27 1    
    54   27   28 1    
    55   27   29 1    
    56   27   95 1    
    57   28   96 1    
    58   28   97 1    
    59   28   98 1    
    60   29   30 am   BACKBONE|DICT|INTERRES
    61   29   99 1    
    62   30   31 2    
    63   30   32 1    
    64   32   33 1    
    65   32   34 1    
    66   32  100 1    
    67   33  101 1    
    68   33  102 1    
    69   33  103 1    
    70   34   35 am   BACKBONE|DICT|INTERRES
    71   34  104 1    
    72   35   36 2    
    73   37   38 2    
    74   37   39 am   BACKBONE|DICT|INTERRES
    75   39   40 1    
    76   39  105 1    
    77   40   41 1    
    78   40   42 1    
    79   40  106 1    
    80   41  107 1    
    81   41  108 1    
    82   41  109 1    
    83   42   43 2    
    84   42   44 am   BACKBONE|DICT|INTERRES
    85   44   45 1    
    86   44  110 1    
    87   45   46 1    
    88   45   47 1    
    89   45  111 1    
    90   46  112 1    
    91   46  113 1    
    92   46  114 1    
    93   47   48 2    
    94   47   49 am   BACKBONE|DICT|INTERRES
    95   49   50 1    
    96   49  115 1    
    97   50   51 1    
    98   50   52 1    
    99   50  116 1    
   100   51  117 1    
   101   51  118 1    
   102   51  119 1    
   103   52   53 2    
   104   52   54 am   BACKBONE|DICT|INTERRES
   105   54   55 1    
   106   54  120 1    
   107   55   56 1    
   108   55   57 1    
   109   55  121 1    
   110   56  122 1    
   111   56  123 1    
   112   56  124 1    
   113   57   58 2    
   114   57   59 am   BACKBONE|DICT|INTERRES
   115   59   60 1    
   116   59  125 1    
   117   60   61 1    
   118   60   62 1    
   119   60  126 1    
   120   61  127 1    
   121   61  128 1    
   122   61  129 1    
   123   62   63 2    
   124   62   64 am   BACKBONE|DICT|INTERRES
   125   64   65 1    
   126   64  130 1    
   127   65   66 1    
   128   65   69 1    
   129   65  131 1    
   130   66   67 am   BACKBONE|DICT|INTERRES
   131   66   68 2    
   132   67  132 1    
   133   67  133 1    
   134   69   70 1    
   135   69  134 1    
   136   69  135 1    
   137   70   71 1    
   138   71  136 1    
   139   71  137 1    
@<TRIPOS>SUBSTRUCTURE
     1 UNK         1 GROUP             0       ****    0 ROOT    
