@<TRIPOS>MOLECULE
3R136
137   139    1
SMALL
USER_CHARGES


@<TRIPOS>ATOM
      1 CA         24.2154   25.0742    1.9116 C.3       0 UNK        -0.1979 
      2 C          24.9010   23.7374    1.6734 C.2       0 UNK         0.4864 
      3 O          24.2434   22.6954    1.7093 O.2       0 UNK        -0.5359 
      4 N          26.2133   23.7501    1.4108 N.am      1 UNK        -0.4318 
      5 CA         27.0585   22.5742    1.1674 C.3       1 UNK         0.0824 
      6 C6         28.5465   22.8848    1.4724 C.3       12 UNK        -0.0944 
      7 S7         28.8349   23.3141    3.2218 S.3       12 UNK        -0.2672 
      8 C8         30.6398   23.0994    3.3359 C.3       12 UNK         0.0333 
      9 C9         31.3989   24.4187    3.2537 C.ar      12 UNK        -0.0807 
     10 C10        32.1260   24.8666    4.3621 C.ar      12 UNK        -0.0894 
     11 C11        32.8896   26.0337    4.2870 C.ar      12 UNK        -0.0804 
     12 C12        32.9127   26.7616    3.0961 C.ar      12 UNK        -0.0824 
     13 C13        32.1812   26.3378    1.9842 C.ar      12 UNK        -0.0762 
     14 C14        31.4253   25.1633    2.0671 C.ar      12 UNK        -0.0782 
     15 C15        32.2605   27.1329    0.6888 C.3       12 UNK         0.0230 
     16 S16        31.0889   28.5279    0.6717 S.3       12 UNK        -0.2608 
     17 C17        29.7415   27.8821   -0.3824 C.3       12 UNK        -0.0989 
     18 CA         28.3394   28.2263    0.1760 C.3       5 UNK         0.0716 
     19 N          27.3091   28.1451   -0.8590 N.am      5 UNK        -0.4135 
     20 C          26.1031   28.7245   -0.7772 C.2       4 UNK         0.5031 
     21 O          25.7450   29.4226    0.1726 O.2       4 UNK        -0.5229 
     22 CA         25.1333   28.5189   -1.9590 C.3       4 UNK         0.0329 
     23 CB         25.1565   29.7432   -2.8890 C.3       4 UNK        -0.2001 
     24 N          25.3969   27.3102   -2.7485 N.am      4 UNK        -0.4303 
     25 C          25.2117   26.0642   -2.2955 C.2       3 UNK         0.5044 
     26 O          24.7719   25.8076   -1.1713 O.2       3 UNK        -0.5152 
     27 CA         25.5991   24.9167   -3.2407 C.3       3 UNK         0.0319 
     28 CB         27.0971   24.9792   -3.6104 C.3       3 UNK        -0.2001 
     29 N          25.3073   23.6750   -2.5364 N.am      3 UNK        -0.4354 
     30 C          25.3335   22.4232   -3.0039 C.2       2 UNK         0.4964 
     31 O          25.5198   22.1364   -4.1879 O.2       2 UNK        -0.5047 
     32 CA         25.1252   21.3097   -1.9523 C.3       2 UNK         0.0288 
     33 CB         25.7165   19.9526   -2.3904 C.3       2 UNK        -0.2113 
     34 N          25.6131   21.6883   -0.6149 N.am      2 UNK        -0.4145 
     35 C          26.8633   22.0407   -0.2712 C.2       1 UNK         0.5006 
     36 O          27.8213   21.9963   -1.0465 O.2       1 UNK        -0.5103 
     37 C          27.9877   27.3259    1.3739 C.2       5 UNK         0.5055 
     38 O          27.6197   26.1659    1.1825 O.2       5 UNK        -0.5220 
     39 N          28.1724   27.8730    2.5760 N.am      6 UNK        -0.4450 
     40 CA         28.1466   27.1866    3.8612 C.3       6 UNK         0.0367 
     41 CB         26.7046   26.8478    4.2864 C.3       6 UNK        -0.1929 
     42 C          28.8707   28.1134    4.8414 C.2       6 UNK         0.5070 
     43 O          28.2290   28.7482    5.6789 O.2       6 UNK        -0.5237 
     44 N          30.1902   28.2438    4.6378 N.am      7 UNK        -0.4739 
     45 CA         31.0930   29.2029    5.2898 C.3       7 UNK         0.0276 
     46 CB         31.2046   28.9337    6.8058 C.3       7 UNK        -0.1927 
     47 C          30.7405   30.6630    4.9552 C.2       7 UNK         0.5013 
     48 O          30.7299   31.5237    5.8380 O.2       7 UNK        -0.5193 
     49 N          30.4774   30.9217    3.6665 N.am      8 UNK        -0.4253 
     50 CA         30.1764   32.2437    3.1140 C.3       8 UNK         0.0242 
     51 CB         29.4383   32.0650    1.7733 C.3       8 UNK        -0.2000 
     52 C          31.4648   33.0766    2.9775 C.2       8 UNK         0.4948 
     53 O          31.9630   33.2566    1.8651 O.2       8 UNK        -0.5275 
     54 N          31.9971   33.5184    4.1279 N.am      9 UNK        -0.4246 
     55 CA         33.2980   34.1755    4.3177 C.3       9 UNK         0.0261 
     56 CB         33.3264   35.5648    3.6442 C.3       9 UNK        -0.1959 
     57 C          34.4575   33.2592    3.8786 C.2       9 UNK         0.5033 
     58 O          35.3099   33.6643    3.0849 O.2       9 UNK        -0.5390 
     59 N          34.4409   32.0224    4.3881 N.am      10 UNK        -0.4215 
     60 CA         35.3586   30.9427    4.0403 C.3       10 UNK         0.0240 
     61 CB         34.8031   30.1848    2.8209 C.3       10 UNK        -0.1982 
     62 C          35.5421   30.0195    5.2520 C.2       10 UNK         0.4970 
     63 O          34.7241   30.0568    6.1744 O.2       10 UNK        -0.4916 
     64 N          36.6166   29.2211    5.2160 N.am      11 UNK        -0.4279 
     65 CA         37.0966   28.3282    6.2909 C.3       11 UNK         0.1003 
     66 C          37.6888   29.0692    7.5303 C.2       11 UNK         0.5709 
     67 N          37.9797   30.3628    7.4550 N.am      11 UNK        -0.7358 
     68 O          37.9230   28.4581    8.5708 O.2       11 UNK        -0.4999 
     69 C69        36.0931   27.2085    6.7000 C.3       12 UNK        -0.0954 
     70 S70        35.4665   26.2280    5.2935 S.3       12 UNK        -0.2268 
     71 C71        33.6847   26.5179    5.4891 C.3       12 UNK         0.0203 
     72 H72        23.3197   25.1505    1.2958 H         1 UNK         0.0888 
     73 H73        23.9233   25.1690    2.9569 H         1 UNK         0.0888 
     74 H74        24.8649   25.9115    1.6558 H         1 UNK         0.0888 
     75 H75        26.7036   24.6446    1.3590 H         1 UNK         0.3017 
     76 H76        26.7421   21.7752    1.8415 H         1 UNK         0.0873 
     77 H77        28.9002   23.7039    0.8446 H         1 UNK         0.0745 
     78 H78        29.1640   22.0176    1.2310 H         1 UNK         0.0745 
     79 H79        30.9999   22.4273    2.5563 H         1 UNK         0.0705 
     80 H80        30.8559   22.5969    4.2800 H         1 UNK         0.0705 
     81 H81        32.1145   24.2955    5.2806 H         1 UNK         0.1334 
     82 H82        33.5182   27.6523    3.0317 H         1 UNK         0.1417 
     83 H83        30.8743   24.8196    1.2036 H         1 UNK         0.1562 
     84 H84        32.1042   26.4838   -0.1738 H         1 UNK         0.0748 
     85 H85        33.2691   27.5334    0.5736 H         1 UNK         0.0748 
     86 H86        29.8466   26.8057   -0.5343 H         1 UNK         0.0940 
     87 H87        29.8719   28.3349   -1.3668 H         1 UNK         0.0940 
     88 H88        28.3602   29.2654    0.5131 H         1 UNK         0.0703 
     89 H89        27.5081   27.5577   -1.6536 H         1 UNK         0.3081 
     90 H90        24.1289   28.4321   -1.5386 H         1 UNK         0.0719 
     91 H91        24.9331   30.6572   -2.3366 H         1 UNK         0.0809 
     92 H92        26.1322   29.8770   -3.3580 H         1 UNK         0.0809 
     93 H93        24.4112   29.6561   -3.6798 H         1 UNK         0.0809 
     94 H94        25.7461   27.4449   -3.6869 H         1 UNK         0.2990 
     95 H95        24.9819   24.9748   -4.1391 H         1 UNK         0.0690 
     96 H96        27.3829   24.1550   -4.2638 H         1 UNK         0.0788 
     97 H97        27.7304   24.9304   -2.7231 H         1 UNK         0.0788 
     98 H98        27.3427   25.8989   -4.1420 H         1 UNK         0.0788 
     99 H99        25.0861   23.8316   -1.5595 H         1 UNK         0.2993 
    100 H100       24.0453   21.1847   -1.8594 H         1 UNK         0.0949 
    101 H101       26.7899   20.0175   -2.5714 H         1 UNK         0.0767 
    102 H102       25.5492   19.1848   -1.6349 H         1 UNK         0.0767 
    103 H103       25.2525   19.6032   -3.3136 H         1 UNK         0.0767 
    104 H104       24.9022   21.8034    0.1043 H         1 UNK         0.3013 
    105 H105       28.4514   28.8426    2.6242 H         1 UNK         0.3121 
    106 H106       28.7205   26.2605    3.7879 H         1 UNK         0.0774 
    107 H107       26.6818   26.4456    5.2998 H         1 UNK         0.0815 
    108 H108       26.0581   27.7257    4.2643 H         1 UNK         0.0815 
    109 H109       26.2728   26.0911    3.6344 H         1 UNK         0.0815 
    110 H110       30.6131   27.6641    3.9236 H         1 UNK         0.2987 
    111 H111       32.0772   29.0478    4.8508 H         1 UNK         0.0949 
    112 H112       32.0037   29.5313    7.2468 H         1 UNK         0.0806 
    113 H113       31.4313   27.8878    7.0106 H         1 UNK         0.0806 
    114 H114       30.2839   29.1849    7.3329 H         1 UNK         0.0806 
    115 H115       30.5802   30.1726    2.9978 H         1 UNK         0.3010 
    116 H116       29.5063   32.7723    3.7959 H         1 UNK         0.0829 
    117 H117       30.0376   31.5120    1.0487 H         1 UNK         0.0813 
    118 H118       28.4955   31.5342    1.9060 H         1 UNK         0.0813 
    119 H119       29.2024   33.0325    1.3281 H         1 UNK         0.0813 
    120 H120       31.5188   33.2383    4.9790 H         1 UNK         0.3038 
    121 H121       33.4154   34.3291    5.3916 H         1 UNK         0.0769 
    122 H122       34.2535   36.0900    3.8767 H         1 UNK         0.0811 
    123 H123       32.5039   36.1904    3.9907 H         1 UNK         0.0811 
    124 H124       33.2594   35.4937    2.5582 H         1 UNK         0.0811 
    125 H125       33.7691   31.7849    5.1072 H         1 UNK         0.3204 
    126 H126       36.3366   31.3611    3.7926 H         1 UNK         0.0748 
    127 H127       35.3861   29.2896    2.6007 H         1 UNK         0.0771 
    128 H128       33.7676   29.8834    2.9777 H         1 UNK         0.0771 
    129 H129       34.8262   30.8116    1.9290 H         1 UNK         0.0771 
    130 H130       37.2184   29.2658    4.4064 H         1 UNK         0.2980 
    131 H131       37.9583   27.8211    5.8557 H         1 UNK         0.0545 
    132 H132       37.8140   30.8793    6.6070 H         1 UNK         0.3459 
    133 H133       38.3729   30.8254    8.2596 H         1 UNK         0.3459 
    134 H134       36.5738   26.5047    7.3815 H         1 UNK         0.0616 
    135 H135       35.2599   27.6360    7.2600 H         1 UNK         0.0616 
    136 H136       33.5248   27.5845    5.6278 H         1 UNK         0.0634 
    137 H137       33.3402   26.0324    6.4035 H         1 UNK         0.0634 
@<TRIPOS>BOND
     1    1    2 1    
     2    1   72 1    
     3    1   73 1    
     4    1   74 1    
     5    2    3 2    
     6    2    4 am   BACKBONE|DICT|INTERRES
     7    4    5 1    
     8    4   75 1    
     9    5    6 1    
    10    5   35 1    
    11    5   76 1    
    12    6    7 1    
    13    6   77 1    
    14    6   78 1    
    15    7    8 1    
    16    8    9 1    
    17    8   79 1    
    18    8   80 1    
    19    9   10 ar   
    20    9   14 ar   
    21   10   11 ar   
    22   10   81 1    
    23   11   12 ar   
    24   11   71 1    
    25   12   13 ar   
    26   12   82 1    
    27   13   14 ar   
    28   13   15 1    
    29   14   83 1    
    30   15   16 1    
    31   15   84 1    
    32   15   85 1    
    33   16   17 1    
    34   17   18 1    
    35   17   86 1    
    36   17   87 1    
    37   18   19 1    
    38   18   37 1    
    39   18   88 1    
    40   19   20 am   BACKBONE|DICT|INTERRES
    41   19   89 1    
    42   20   21 2    
    43   20   22 1    
    44   22   23 1    
    45   22   24 1    
    46   22   90 1    
    47   23   91 1    
    48   23   92 1    
    49   23   93 1    
    50   24   25 am   BACKBONE|DICT|INTERRES
    51   24   94 1    
    52   25   26 2    
    53   25   27 1    
    54   27   28 1    
    55   27   29 1    
    56   27   95 1    
    57   28   96 1    
    58   28   97 1    
    59   28   98 1    
    60   29   30 am   BACKBONE|DICT|INTERRES
    61   29   99 1    
    62   30   31 2    
    63   30   32 1    
    64   32   33 1    
    65   32   34 1    
    66   32  100 1    
    67   33  101 1    
    68   33  102 1    
    69   33  103 1    
    70   34   35 am   BACKBONE|DICT|INTERRES
    71   34  104 1    
    72   35   36 2    
    73   37   38 2    
    74   37   39 am   BACKBONE|DICT|INTERRES
    75   39   40 1    
    76   39  105 1    
    77   40   41 1    
    78   40   42 1    
    79   40  106 1    
    80   41  107 1    
    81   41  108 1    
    82   41  109 1    
    83   42   43 2    
    84   42   44 am   BACKBONE|DICT|INTERRES
    85   44   45 1    
    86   44  110 1    
    87   45   46 1    
    88   45   47 1    
    89   45  111 1    
    90   46  112 1    
    91   46  113 1    
    92   46  114 1    
    93   47   48 2    
    94   47   49 am   BACKBONE|DICT|INTERRES
    95   49   50 1    
    96   49  115 1    
    97   50   51 1    
    98   50   52 1    
    99   50  116 1    
   100   51  117 1    
   101   51  118 1    
   102   51  119 1    
   103   52   53 2    
   104   52   54 am   BACKBONE|DICT|INTERRES
   105   54   55 1    
   106   54  120 1    
   107   55   56 1    
   108   55   57 1    
   109   55  121 1    
   110   56  122 1    
   111   56  123 1    
   112   56  124 1    
   113   57   58 2    
   114   57   59 am   BACKBONE|DICT|INTERRES
   115   59   60 1    
   116   59  125 1    
   117   60   61 1    
   118   60   62 1    
   119   60  126 1    
   120   61  127 1    
   121   61  128 1    
   122   61  129 1    
   123   62   63 2    
   124   62   64 am   BACKBONE|DICT|INTERRES
   125   64   65 1    
   126   64  130 1    
   127   65   66 1    
   128   65   69 1    
   129   65  131 1    
   130   66   67 am   BACKBONE|DICT|INTERRES
   131   66   68 2    
   132   67  132 1    
   133   67  133 1    
   134   69   70 1    
   135   69  134 1    
   136   69  135 1    
   137   70   71 1    
   138   71  136 1    
   139   71  137 1    
@<TRIPOS>SUBSTRUCTURE
     1 UNK         1 GROUP             0       ****    0 ROOT    
