@<TRIPOS>MOLECULE
3R136
137   139    1
SMALL
USER_CHARGES


@<TRIPOS>ATOM
      1 CA         27.0283   23.1429   -0.4378 C.3       0 UNK        -0.1979 
      2 C          27.6578   24.1760    0.4830 C.2       0 UNK         0.4864 
      3 O          27.4717   25.3738    0.2668 O.2       0 UNK        -0.5359 
      4 N          28.3783   23.7160    1.5153 N.am      1 UNK        -0.4318 
      5 CA         29.1883   24.4928    2.4697 C.3       1 UNK         0.0824 
      6 C6         29.9609   23.5233    3.4034 C.3       12 UNK        -0.0944 
      7 S7         31.4777   24.2258    4.1358 S.3       12 UNK        -0.2672 
      8 C8         32.7946   23.5443    3.0831 C.3       12 UNK         0.0333 
      9 C9         33.1499   24.4978    1.9540 C.ar      12 UNK        -0.0807 
     10 C10        34.0694   25.5261    2.1796 C.ar      12 UNK        -0.0894 
     11 C11        34.4356   26.3929    1.1464 C.ar      12 UNK        -0.0804 
     12 C12        33.8618   26.2314   -0.1189 C.ar      12 UNK        -0.0824 
     13 C13        32.9271   25.2173   -0.3541 C.ar      12 UNK        -0.0762 
     14 C14        32.5826   24.3459    0.6855 C.ar      12 UNK        -0.0782 
     15 C15        32.3063   25.0577   -1.7376 C.3       12 UNK         0.0230 
     16 S16        30.4856   25.1393   -1.7074 S.3       12 UNK        -0.2608 
     17 C17        30.1849   26.8028   -1.0179 C.3       12 UNK        -0.0989 
     18 CA         29.2300   27.6515   -1.8935 C.3       5 UNK         0.0716 
     19 N          27.9150   27.0227   -2.0265 N.am      5 UNK        -0.4135 
     20 C          27.0443   27.2875   -3.0072 C.2       4 UNK         0.5031 
     21 O          27.2823   28.0496   -3.9463 O.2       4 UNK        -0.5229 
     22 CA         25.6823   26.5746   -2.9543 C.3       4 UNK         0.0329 
     23 CB         25.7489   25.2374   -3.7101 C.3       4 UNK        -0.2001 
     24 N          25.1836   26.3382   -1.5971 N.am      4 UNK        -0.4303 
     25 C          24.7105   27.2872   -0.7780 C.2       3 UNK         0.5044 
     26 O          24.6867   28.4865   -1.0550 O.2       3 UNK        -0.5152 
     27 CA         24.1258   26.8144    0.5598 C.3       3 UNK         0.0319 
     28 CB         23.3263   25.4987    0.4474 C.3       3 UNK        -0.2001 
     29 N          25.1857   26.6782    1.5560 N.am      3 UNK        -0.4354 
     30 C          25.0131   26.8547    2.8747 C.2       2 UNK         0.4964 
     31 O          23.9347   27.1722    3.3798 O.2       2 UNK        -0.5047 
     32 CA         26.2305   26.6143    3.7847 C.3       2 UNK         0.0288 
     33 CB         25.8536   26.2757    5.2413 C.3       2 UNK        -0.2113 
     34 N          27.0857   25.5629    3.2362 N.am      2 UNK        -0.4145 
     35 C          28.4221   25.5770    3.2721 C.2       1 UNK         0.5006 
     36 O          29.0562   26.4160    3.9122 O.2       1 UNK        -0.5103 
     37 C          29.0782   29.0586   -1.2871 C.2       5 UNK         0.5055 
     38 O          28.1306   29.3117   -0.5381 O.2       5 UNK        -0.5220 
     39 N          30.0632   29.9300   -1.5437 N.am      6 UNK        -0.4450 
     40 CA         30.2270   31.2277   -0.8771 C.3       6 UNK         0.0367 
     41 CB         31.0677   32.1524   -1.7773 C.3       6 UNK        -0.1929 
     42 C          30.8438   31.0394    0.5252 C.2       6 UNK         0.5070 
     43 O          31.9304   31.5485    0.8036 O.2       6 UNK        -0.5237 
     44 N          30.1525   30.2621    1.3617 N.am      7 UNK        -0.4739 
     45 CA         30.5976   29.7752    2.6593 C.3       7 UNK         0.0276 
     46 CB         31.2040   28.3722    2.4659 C.3       7 UNK        -0.1927 
     47 C          29.4051   29.7160    3.6201 C.2       7 UNK         0.5013 
     48 O          28.2540   29.6854    3.1766 O.2       7 UNK        -0.5193 
     49 N          29.7122   29.6701    4.9188 N.am      8 UNK        -0.4253 
     50 CA         28.7585   29.4442    6.0024 C.3       8 UNK         0.0242 
     51 CB         28.3689   30.7919    6.6388 C.3       8 UNK        -0.2000 
     52 C          29.4006   28.4670    6.9946 C.2       8 UNK         0.4948 
     53 O          29.8035   28.8739    8.0846 O.2       8 UNK        -0.5275 
     54 N          29.5611   27.2108    6.5506 N.am      9 UNK        -0.4246 
     55 CA         30.2865   26.1012    7.1952 C.3       9 UNK         0.0261 
     56 CB         29.7582   25.8068    8.6150 C.3       9 UNK        -0.1959 
     57 C          31.8233   26.2550    7.1549 C.2       9 UNK         0.5033 
     58 O          32.5354   25.4127    7.7042 O.2       9 UNK        -0.5390 
     59 N          32.2956   27.3032    6.4755 N.am      10 UNK        -0.4215 
     60 CA         33.6690   27.6914    6.1828 C.3       10 UNK         0.0240 
     61 CB         34.4467   28.0133    7.4740 C.3       10 UNK        -0.1982 
     62 C          33.5812   28.9350    5.2884 C.2       10 UNK         0.4970 
     63 O          32.5803   29.6576    5.3589 O.2       10 UNK        -0.4916 
     64 N          34.6136   29.1639    4.4722 N.am      11 UNK        -0.4279 
     65 CA         34.7664   30.3838    3.6648 C.3       11 UNK         0.1003 
     66 C          35.3302   31.5537    4.5144 C.2       11 UNK         0.5709 
     67 N          34.9670   32.7864    4.1879 N.am      11 UNK        -0.7358 
     68 O          36.1173   31.3590    5.4396 O.2       11 UNK        -0.4999 
     69 C69        35.6391   30.1328    2.4073 C.3       12 UNK        -0.0954 
     70 S70        34.7449   29.1424    1.1673 S.3       12 UNK        -0.2268 
     71 C71        35.4639   27.4882    1.3966 C.3       12 UNK         0.0203 
     72 H72        25.9533   23.2999   -0.5101 H         1 UNK         0.0888 
     73 H73        27.4576   23.2282   -1.4355 H         1 UNK         0.0888 
     74 H74        27.1972   22.1257   -0.0851 H         1 UNK         0.0888 
     75 H75        28.4437   22.7148    1.6316 H         1 UNK         0.3017 
     76 H76        29.9188   25.0332    1.8645 H         1 UNK         0.0873 
     77 H77        29.3172   23.1771    4.2145 H         1 UNK         0.0745 
     78 H78        30.2435   22.6204    2.8607 H         1 UNK         0.0745 
     79 H79        33.6761   23.3749    3.7034 H         1 UNK         0.0705 
     80 H80        32.5147   22.5650    2.6931 H         1 UNK         0.0705 
     81 H81        34.5066   25.6423    3.1618 H         1 UNK         0.1334 
     82 H82        34.1437   26.9034   -0.9182 H         1 UNK         0.1417 
     83 H83        31.8678   23.5543    0.5059 H         1 UNK         0.1562 
     84 H84        32.6084   24.0947   -2.1512 H         1 UNK         0.0748 
     85 H85        32.6800   25.8182   -2.4251 H         1 UNK         0.0748 
     86 H86        31.1404   27.3152   -0.8911 H         1 UNK         0.0940 
     87 H87        29.7776   26.6816   -0.0132 H         1 UNK         0.0940 
     88 H88        29.6706   27.7527   -2.8879 H         1 UNK         0.0703 
     89 H89        27.6392   26.4137   -1.2598 H         1 UNK         0.3081 
     90 H90        24.9607   27.2145   -3.4670 H         1 UNK         0.0719 
     91 H91        26.0701   25.3898   -4.7415 H         1 UNK         0.0809 
     92 H92        24.7743   24.7502   -3.7452 H         1 UNK         0.0809 
     93 H93        26.4559   24.5470   -3.2498 H         1 UNK         0.0809 
     94 H94        25.1793   25.3828   -1.2748 H         1 UNK         0.2990 
     95 H95        23.4341   27.5974    0.8791 H         1 UNK         0.0690 
     96 H96        23.9700   24.6371    0.2715 H         1 UNK         0.0788 
     97 H97        22.6022   25.5461   -0.3673 H         1 UNK         0.0788 
     98 H98        22.7650   25.3051    1.3618 H         1 UNK         0.0788 
     99 H99        26.1089   26.4511    1.1930 H         1 UNK         0.2993 
    100 H100       26.7770   27.5592    3.7865 H         1 UNK         0.0949 
    101 H101       25.2626   27.0745    5.6909 H         1 UNK         0.0767 
    102 H102       25.2669   25.3584    5.2993 H         1 UNK         0.0767 
    103 H103       26.7411   26.1458    5.8610 H         1 UNK         0.0767 
    104 H104       26.6263   24.8467    2.6917 H         1 UNK         0.3013 
    105 H105       30.8246   29.6401   -2.1409 H         1 UNK         0.3121 
    106 H106       29.2467   31.6913   -0.7450 H         1 UNK         0.0774 
    107 H107       31.1845   33.1369   -1.3224 H         1 UNK         0.0815 
    108 H108       32.0677   31.7519   -1.9482 H         1 UNK         0.0815 
    109 H109       30.5936   32.3000   -2.7477 H         1 UNK         0.0815 
    110 H110       29.2360   29.9303    1.0713 H         1 UNK         0.2987 
    111 H111       31.3462   30.4525    3.0748 H         1 UNK         0.0949 
    112 H112       30.4811   27.6844    2.0291 H         1 UNK         0.0806 
    113 H113       32.0690   28.3967    1.8065 H         1 UNK         0.0806 
    114 H114       31.5263   27.9351    3.4104 H         1 UNK         0.0806 
    115 H115       30.6926   29.7319    5.1849 H         1 UNK         0.3010 
    116 H116       27.8532   28.9670    5.6202 H         1 UNK         0.0829 
    117 H117       27.8711   31.4392    5.9167 H         1 UNK         0.0813 
    118 H118       27.6812   30.6452    7.4725 H         1 UNK         0.0813 
    119 H119       29.2401   31.3253    7.0212 H         1 UNK         0.0813 
    120 H120       29.2564   27.0035    5.5973 H         1 UNK         0.3038 
    121 H121       30.0632   25.2251    6.5852 H         1 UNK         0.0769 
    122 H122       30.0280   26.5910    9.3224 H         1 UNK         0.0811 
    123 H123       30.1751   24.8744    8.9974 H         1 UNK         0.0811 
    124 H124       28.6733   25.7030    8.6221 H         1 UNK         0.0811 
    125 H125       31.6183   27.9435    6.0848 H         1 UNK         0.3204 
    126 H126       34.1548   26.8805    5.6367 H         1 UNK         0.0748 
    127 H127       34.5581   27.1336    8.1075 H         1 UNK         0.0771 
    128 H128       35.4514   28.3730    7.2479 H         1 UNK         0.0771 
    129 H129       33.9474   28.7863    8.0599 H         1 UNK         0.0771 
    130 H130       35.4164   28.5547    4.5079 H         1 UNK         0.2980 
    131 H131       33.7762   30.6914    3.3215 H         1 UNK         0.0545 
    132 H132       34.3336   32.9568    3.4220 H         1 UNK         0.3459 
    133 H133       35.3322   33.5617    4.7186 H         1 UNK         0.3459 
    134 H134       35.8938   31.0771    1.9222 H         1 UNK         0.0616 
    135 H135       36.5883   29.6611    2.6668 H         1 UNK         0.0616 
    136 H136       35.8701   27.3998    2.4048 H         1 UNK         0.0634 
    137 H137       36.3044   27.3654    0.7125 H         1 UNK         0.0634 
@<TRIPOS>BOND
     1    1    2 1    
     2    1   72 1    
     3    1   73 1    
     4    1   74 1    
     5    2    3 2    
     6    2    4 am   BACKBONE|DICT|INTERRES
     7    4    5 1    
     8    4   75 1    
     9    5    6 1    
    10    5   35 1    
    11    5   76 1    
    12    6    7 1    
    13    6   77 1    
    14    6   78 1    
    15    7    8 1    
    16    8    9 1    
    17    8   79 1    
    18    8   80 1    
    19    9   10 ar   
    20    9   14 ar   
    21   10   11 ar   
    22   10   81 1    
    23   11   12 ar   
    24   11   71 1    
    25   12   13 ar   
    26   12   82 1    
    27   13   14 ar   
    28   13   15 1    
    29   14   83 1    
    30   15   16 1    
    31   15   84 1    
    32   15   85 1    
    33   16   17 1    
    34   17   18 1    
    35   17   86 1    
    36   17   87 1    
    37   18   19 1    
    38   18   37 1    
    39   18   88 1    
    40   19   20 am   BACKBONE|DICT|INTERRES
    41   19   89 1    
    42   20   21 2    
    43   20   22 1    
    44   22   23 1    
    45   22   24 1    
    46   22   90 1    
    47   23   91 1    
    48   23   92 1    
    49   23   93 1    
    50   24   25 am   BACKBONE|DICT|INTERRES
    51   24   94 1    
    52   25   26 2    
    53   25   27 1    
    54   27   28 1    
    55   27   29 1    
    56   27   95 1    
    57   28   96 1    
    58   28   97 1    
    59   28   98 1    
    60   29   30 am   BACKBONE|DICT|INTERRES
    61   29   99 1    
    62   30   31 2    
    63   30   32 1    
    64   32   33 1    
    65   32   34 1    
    66   32  100 1    
    67   33  101 1    
    68   33  102 1    
    69   33  103 1    
    70   34   35 am   BACKBONE|DICT|INTERRES
    71   34  104 1    
    72   35   36 2    
    73   37   38 2    
    74   37   39 am   BACKBONE|DICT|INTERRES
    75   39   40 1    
    76   39  105 1    
    77   40   41 1    
    78   40   42 1    
    79   40  106 1    
    80   41  107 1    
    81   41  108 1    
    82   41  109 1    
    83   42   43 2    
    84   42   44 am   BACKBONE|DICT|INTERRES
    85   44   45 1    
    86   44  110 1    
    87   45   46 1    
    88   45   47 1    
    89   45  111 1    
    90   46  112 1    
    91   46  113 1    
    92   46  114 1    
    93   47   48 2    
    94   47   49 am   BACKBONE|DICT|INTERRES
    95   49   50 1    
    96   49  115 1    
    97   50   51 1    
    98   50   52 1    
    99   50  116 1    
   100   51  117 1    
   101   51  118 1    
   102   51  119 1    
   103   52   53 2    
   104   52   54 am   BACKBONE|DICT|INTERRES
   105   54   55 1    
   106   54  120 1    
   107   55   56 1    
   108   55   57 1    
   109   55  121 1    
   110   56  122 1    
   111   56  123 1    
   112   56  124 1    
   113   57   58 2    
   114   57   59 am   BACKBONE|DICT|INTERRES
   115   59   60 1    
   116   59  125 1    
   117   60   61 1    
   118   60   62 1    
   119   60  126 1    
   120   61  127 1    
   121   61  128 1    
   122   61  129 1    
   123   62   63 2    
   124   62   64 am   BACKBONE|DICT|INTERRES
   125   64   65 1    
   126   64  130 1    
   127   65   66 1    
   128   65   69 1    
   129   65  131 1    
   130   66   67 am   BACKBONE|DICT|INTERRES
   131   66   68 2    
   132   67  132 1    
   133   67  133 1    
   134   69   70 1    
   135   69  134 1    
   136   69  135 1    
   137   70   71 1    
   138   71  136 1    
   139   71  137 1    
@<TRIPOS>SUBSTRUCTURE
     1 UNK         1 GROUP             0       ****    0 ROOT    
