@<TRIPOS>MOLECULE
3R136
137   139    1
SMALL
USER_CHARGES


@<TRIPOS>ATOM
      1 CA         28.3749   16.6933   -0.1385 C.3       0 UNK        -0.1979 
      2 C          29.1561   17.9736   -0.3955 C.2       0 UNK         0.4864 
      3 O          29.2755   18.3969   -1.5467 O.2       0 UNK        -0.5359 
      4 N          29.6958   18.5865    0.6652 N.am      1 UNK        -0.4318 
      5 CA         30.4079   19.8667    0.6224 C.3       1 UNK         0.0824 
      6 C6         31.2987   20.0572    1.8774 C.3       12 UNK        -0.0944 
      7 S7         30.3737   20.0718    3.4571 S.3       12 UNK        -0.2672 
      8 C8         31.2360   21.3639    4.4060 C.3       12 UNK         0.0333 
      9 C9         31.0869   22.7556    3.8030 C.ar      12 UNK        -0.0807 
     10 C10        32.1703   23.3515    3.1506 C.ar      12 UNK        -0.0894 
     11 C11        32.0814   24.6600    2.6662 C.ar      12 UNK        -0.0804 
     12 C12        30.8857   25.3656    2.8265 C.ar      12 UNK        -0.0824 
     13 C13        29.7854   24.7776    3.4573 C.ar      12 UNK        -0.0762 
     14 C14        29.8913   23.4694    3.9434 C.ar      12 UNK        -0.0782 
     15 C15        28.5050   25.5809    3.6457 C.3       12 UNK         0.0230 
     16 S16        27.7010   25.9494    2.0548 S.3       12 UNK        -0.2608 
     17 C17        26.3944   27.1141    2.5731 C.3       12 UNK        -0.0989 
     18 CA         26.8729   28.5880    2.5824 C.3       5 UNK         0.0716 
     19 N          27.4286   29.0051    1.2933 N.am      5 UNK        -0.4135 
     20 C          28.0347   30.1703    1.0359 C.2       4 UNK         0.5031 
     21 O          28.1579   31.0695    1.8718 O.2       4 UNK        -0.5229 
     22 CA         28.6460   30.3391   -0.3728 C.3       4 UNK         0.0329 
     23 CB         29.4344   31.6542   -0.5139 C.3       4 UNK        -0.2001 
     24 N          29.5339   29.2261   -0.7291 N.am      4 UNK        -0.4303 
     25 C          29.1374   28.0014   -1.0978 C.2       3 UNK         0.5044 
     26 O          27.9496   27.6922   -1.2293 O.2       3 UNK        -0.5152 
     27 CA         30.2170   26.9237   -1.2905 C.3       3 UNK         0.0319 
     28 CB         31.5527   27.2507   -0.5879 C.3       3 UNK        -0.2001 
     29 N          29.6352   25.6785   -0.7995 N.am      3 UNK        -0.4354 
     30 C          30.0985   24.4357   -0.9449 C.2       2 UNK         0.4964 
     31 O          31.1841   24.1409   -1.4514 O.2       2 UNK        -0.5047 
     32 CA         29.1404   23.3297   -0.4928 C.3       2 UNK         0.0288 
     33 CB         28.0490   23.0968   -1.5594 C.3       2 UNK        -0.2113 
     34 N          29.8927   22.1032   -0.2490 N.am      2 UNK        -0.4145 
     35 C          29.4258   21.0410    0.4163 C.2       1 UNK         0.5006 
     36 O          28.2800   20.9706    0.8729 O.2       1 UNK        -0.5103 
     37 C          25.7427   29.5357    3.0281 C.2       5 UNK         0.5055 
     38 O          24.8705   29.8634    2.2203 O.2       5 UNK        -0.5220 
     39 N          25.8045   29.9658    4.2969 N.am      6 UNK        -0.4450 
     40 CA         24.9448   30.9689    4.9446 C.3       6 UNK         0.0367 
     41 CB         23.4632   30.5336    4.9464 C.3       6 UNK        -0.1929 
     42 C          25.1358   32.4088    4.4165 C.2       6 UNK         0.5070 
     43 O          24.3429   33.2848    4.7660 O.2       6 UNK        -0.5237 
     44 N          26.1886   32.6441    3.6236 N.am      7 UNK        -0.4739 
     45 CA         26.6194   33.9521    3.1405 C.3       7 UNK         0.0276 
     46 CB         26.3429   34.0573    1.6258 C.3       7 UNK        -0.1927 
     47 C          28.0925   34.1277    3.5401 C.2       7 UNK         0.5013 
     48 O          28.3738   34.2390    4.7346 O.2       7 UNK        -0.5193 
     49 N          29.0078   34.1371    2.5611 N.am      8 UNK        -0.4253 
     50 CA         30.4542   34.2661    2.7721 C.3       8 UNK         0.0242 
     51 CB         31.1254   34.6698    1.4486 C.3       8 UNK        -0.2000 
     52 C          31.1219   33.0056    3.3565 C.2       8 UNK         0.4948 
     53 O          32.2482   33.1039    3.8458 O.2       8 UNK        -0.5275 
     54 N          30.4483   31.8480    3.2768 N.am      9 UNK        -0.4246 
     55 CA         30.8169   30.5134    3.7712 C.3       9 UNK         0.0261 
     56 CB         30.9994   30.5046    5.3006 C.3       9 UNK        -0.1959 
     57 C          32.0192   29.8618    3.0703 C.2       9 UNK         0.5033 
     58 O          31.9731   28.6586    2.8183 O.2       9 UNK        -0.5390 
     59 N          33.0726   30.6400    2.7898 N.am      10 UNK        -0.4215 
     60 CA         34.3615   30.2815    2.1771 C.3       10 UNK         0.0240 
     61 CB         34.1777   29.6993    0.7619 C.3       10 UNK        -0.1982 
     62 C          35.2338   29.3606    3.0506 C.2       10 UNK         0.4970 
     63 O          36.4052   29.6706    3.2694 O.2       10 UNK        -0.4916 
     64 N          34.6464   28.2691    3.5494 N.am      11 UNK        -0.4279 
     65 CA         35.2498   27.3245    4.5001 C.3       11 UNK         0.1003 
     66 C          35.2975   27.8427    5.9684 C.2       11 UNK         0.5709 
     67 N          34.6827   28.9717    6.3034 N.am      11 UNK        -0.7358 
     68 O          35.9181   27.2118    6.8209 O.2       11 UNK        -0.4999 
     69 C69        34.5635   25.9360    4.4194 C.3       12 UNK        -0.0954 
     70 S70        34.8568   25.1004    2.8237 S.3       12 UNK        -0.2268 
     71 C71        33.2637   25.3201    1.9627 C.3       12 UNK         0.0203 
     72 H72        28.8198   15.8648   -0.6889 H         1 UNK         0.0888 
     73 H73        28.3617   16.4295    0.9190 H         1 UNK         0.0888 
     74 H74        27.3439   16.8101   -0.4714 H         1 UNK         0.0888 
     75 H75        29.5333   18.2201    1.5925 H         1 UNK         0.3017 
     76 H76        31.0704   19.8400   -0.2460 H         1 UNK         0.0873 
     77 H77        32.0326   19.2515    1.9292 H         1 UNK         0.0745 
     78 H78        31.8837   20.9711    1.7765 H         1 UNK         0.0745 
     79 H79        30.8391   21.3720    5.4221 H         1 UNK         0.0705 
     80 H80        32.2891   21.0929    4.4975 H         1 UNK         0.0705 
     81 H81        33.0957   22.8034    3.0385 H         1 UNK         0.1334 
     82 H82        30.8036   26.3796    2.4614 H         1 UNK         0.1417 
     83 H83        29.0523   23.0098    4.4483 H         1 UNK         0.1562 
     84 H84        28.7469   26.5145    4.1555 H         1 UNK         0.0748 
     85 H85        27.8017   25.0477    4.2873 H         1 UNK         0.0748 
     86 H86        26.0264   26.8192    3.5579 H         1 UNK         0.0940 
     87 H87        25.5513   26.9942    1.8894 H         1 UNK         0.0940 
     88 H88        27.6871   28.6688    3.3054 H         1 UNK         0.0703 
     89 H89        27.3666   28.3326    0.5361 H         1 UNK         0.3081 
     90 H90        27.8154   30.3679   -1.0812 H         1 UNK         0.0719 
     91 H91        30.2811   31.6868    0.1725 H         1 UNK         0.0809 
     92 H92        29.8188   31.7795   -1.5263 H         1 UNK         0.0809 
     93 H93        28.8026   32.5172   -0.3033 H         1 UNK         0.0809 
     94 H94        30.5226   29.3846   -0.6017 H         1 UNK         0.2990 
     95 H95        30.3924   26.8203   -2.3628 H         1 UNK         0.0690 
     96 H96        32.0255   28.1293   -1.0276 H         1 UNK         0.0788 
     97 H97        32.2696   26.4366   -0.6855 H         1 UNK         0.0788 
     98 H98        31.4094   27.4446    0.4744 H         1 UNK         0.0788 
     99 H99        28.7095   25.8054   -0.4058 H         1 UNK         0.2993 
    100 H100       28.6777   23.6384    0.4471 H         1 UNK         0.0949 
    101 H101       27.3165   22.3586   -1.2336 H         1 UNK         0.0767 
    102 H102       27.5002   24.0159   -1.7695 H         1 UNK         0.0767 
    103 H103       28.4775   22.7492   -2.5003 H         1 UNK         0.0767 
    104 H104       30.8482   22.1288   -0.5843 H         1 UNK         0.3013 
    105 H105       26.5645   29.6291    4.8727 H         1 UNK         0.3121 
    106 H106       25.2692   31.0000    5.9859 H         1 UNK         0.0774 
    107 H107       22.8660   31.1859    5.5846 H         1 UNK         0.0815 
    108 H108       23.0250   30.5735    3.9490 H         1 UNK         0.0815 
    109 H109       23.3467   29.5185    5.3256 H         1 UNK         0.0815 
    110 H110       26.7933   31.8714    3.3705 H         1 UNK         0.2987 
    111 H111       26.0680   34.7497    3.6431 H         1 UNK         0.0949 
    112 H112       26.8197   33.2572    1.0598 H         1 UNK         0.0806 
    113 H113       25.2728   33.9990    1.4262 H         1 UNK         0.0806 
    114 H114       26.6885   35.0107    1.2238 H         1 UNK         0.0806 
    115 H115       28.6916   34.0201    1.6099 H         1 UNK         0.3010 
    116 H116       30.6188   35.0718    3.4909 H         1 UNK         0.0829 
    117 H117       30.7224   35.6094    1.0702 H         1 UNK         0.0813 
    118 H118       32.1987   34.8128    1.5830 H         1 UNK         0.0813 
    119 H119       30.9942   33.9131    0.6758 H         1 UNK         0.0813 
    120 H120       29.5555   31.8610    2.7873 H         1 UNK         0.3038 
    121 H121       29.9597   29.8768    3.5486 H         1 UNK         0.0769 
    122 H122       31.8441   31.1171    5.6169 H         1 UNK         0.0811 
    123 H123       31.1787   29.4921    5.6654 H         1 UNK         0.0811 
    124 H124       30.1087   30.8780    5.8058 H         1 UNK         0.0811 
    125 H125       32.9926   31.6064    3.1057 H         1 UNK         0.3204 
    126 H126       34.9040   31.2227    2.0734 H         1 UNK         0.0748 
    127 H127       35.1418   29.5691    0.2689 H         1 UNK         0.0771 
    128 H128       33.6941   28.7230    0.7825 H         1 UNK         0.0771 
    129 H129       33.5782   30.3595    0.1351 H         1 UNK         0.0771 
    130 H130       33.6653   28.1244    3.3225 H         1 UNK         0.2980 
    131 H131       36.2937   27.1907    4.2104 H         1 UNK         0.0545 
    132 H132       34.7309   29.2936    7.2571 H         1 UNK         0.3459 
    133 H133       34.1846   29.5064    5.6123 H         1 UNK         0.3459 
    134 H134       34.9498   25.2686    5.1918 H         1 UNK         0.0616 
    135 H135       33.4928   26.0264    4.6093 H         1 UNK         0.0616 
    136 H136       33.3482   24.8992    0.9602 H         1 UNK         0.0634 
    137 H137       33.0921   26.3889    1.8373 H         1 UNK         0.0634 
@<TRIPOS>BOND
     1    1    2 1    
     2    1   72 1    
     3    1   73 1    
     4    1   74 1    
     5    2    3 2    
     6    2    4 am   BACKBONE|DICT|INTERRES
     7    4    5 1    
     8    4   75 1    
     9    5    6 1    
    10    5   35 1    
    11    5   76 1    
    12    6    7 1    
    13    6   77 1    
    14    6   78 1    
    15    7    8 1    
    16    8    9 1    
    17    8   79 1    
    18    8   80 1    
    19    9   10 ar   
    20    9   14 ar   
    21   10   11 ar   
    22   10   81 1    
    23   11   12 ar   
    24   11   71 1    
    25   12   13 ar   
    26   12   82 1    
    27   13   14 ar   
    28   13   15 1    
    29   14   83 1    
    30   15   16 1    
    31   15   84 1    
    32   15   85 1    
    33   16   17 1    
    34   17   18 1    
    35   17   86 1    
    36   17   87 1    
    37   18   19 1    
    38   18   37 1    
    39   18   88 1    
    40   19   20 am   BACKBONE|DICT|INTERRES
    41   19   89 1    
    42   20   21 2    
    43   20   22 1    
    44   22   23 1    
    45   22   24 1    
    46   22   90 1    
    47   23   91 1    
    48   23   92 1    
    49   23   93 1    
    50   24   25 am   BACKBONE|DICT|INTERRES
    51   24   94 1    
    52   25   26 2    
    53   25   27 1    
    54   27   28 1    
    55   27   29 1    
    56   27   95 1    
    57   28   96 1    
    58   28   97 1    
    59   28   98 1    
    60   29   30 am   BACKBONE|DICT|INTERRES
    61   29   99 1    
    62   30   31 2    
    63   30   32 1    
    64   32   33 1    
    65   32   34 1    
    66   32  100 1    
    67   33  101 1    
    68   33  102 1    
    69   33  103 1    
    70   34   35 am   BACKBONE|DICT|INTERRES
    71   34  104 1    
    72   35   36 2    
    73   37   38 2    
    74   37   39 am   BACKBONE|DICT|INTERRES
    75   39   40 1    
    76   39  105 1    
    77   40   41 1    
    78   40   42 1    
    79   40  106 1    
    80   41  107 1    
    81   41  108 1    
    82   41  109 1    
    83   42   43 2    
    84   42   44 am   BACKBONE|DICT|INTERRES
    85   44   45 1    
    86   44  110 1    
    87   45   46 1    
    88   45   47 1    
    89   45  111 1    
    90   46  112 1    
    91   46  113 1    
    92   46  114 1    
    93   47   48 2    
    94   47   49 am   BACKBONE|DICT|INTERRES
    95   49   50 1    
    96   49  115 1    
    97   50   51 1    
    98   50   52 1    
    99   50  116 1    
   100   51  117 1    
   101   51  118 1    
   102   51  119 1    
   103   52   53 2    
   104   52   54 am   BACKBONE|DICT|INTERRES
   105   54   55 1    
   106   54  120 1    
   107   55   56 1    
   108   55   57 1    
   109   55  121 1    
   110   56  122 1    
   111   56  123 1    
   112   56  124 1    
   113   57   58 2    
   114   57   59 am   BACKBONE|DICT|INTERRES
   115   59   60 1    
   116   59  125 1    
   117   60   61 1    
   118   60   62 1    
   119   60  126 1    
   120   61  127 1    
   121   61  128 1    
   122   61  129 1    
   123   62   63 2    
   124   62   64 am   BACKBONE|DICT|INTERRES
   125   64   65 1    
   126   64  130 1    
   127   65   66 1    
   128   65   69 1    
   129   65  131 1    
   130   66   67 am   BACKBONE|DICT|INTERRES
   131   66   68 2    
   132   67  132 1    
   133   67  133 1    
   134   69   70 1    
   135   69  134 1    
   136   69  135 1    
   137   70   71 1    
   138   71  136 1    
   139   71  137 1    
@<TRIPOS>SUBSTRUCTURE
     1 UNK         1 GROUP             0       ****    0 ROOT    
