@<TRIPOS>MOLECULE
3R136
137   139    1
SMALL
USER_CHARGES


@<TRIPOS>ATOM
      1 CA         23.2906   26.3468    2.9557 C.3       0 UNK        -0.1979 
      2 C          24.1192   25.0717    2.8992 C.2       0 UNK         0.4864 
      3 O          23.5787   23.9811    3.0919 O.2       0 UNK        -0.5359 
      4 N          25.4252   25.2026    2.6406 N.am      1 UNK        -0.4318 
      5 CA         26.3605   24.0924    2.4500 C.3       1 UNK         0.0824 
      6 C6         27.8096   24.5307    2.7720 C.3       12 UNK        -0.0944 
      7 S7         28.8570   23.1546    3.3580 S.3       12 UNK        -0.2672 
      8 C8         30.1795   23.0827    2.1044 C.3       12 UNK         0.0333 
      9 C9         31.0949   24.3002    2.1580 C.ar      12 UNK        -0.0807 
     10 C10        32.0044   24.4626    3.2089 C.ar      12 UNK        -0.0894 
     11 C11        32.8431   25.5819    3.2542 C.ar      12 UNK        -0.0804 
     12 C12        32.7512   26.5522    2.2504 C.ar      12 UNK        -0.0824 
     13 C13        31.8434   26.4046    1.1987 C.ar      12 UNK        -0.0762 
     14 C14        31.0414   25.2606    1.1450 C.ar      12 UNK        -0.0782 
     15 C15        31.7422   27.4745    0.1187 C.3       12 UNK         0.0230 
     16 S16        30.3523   28.6186    0.4174 S.3       12 UNK        -0.2608 
     17 C17        28.9584   27.6016   -0.1713 C.3       12 UNK        -0.0989 
     18 CA         27.5959   28.3289   -0.2290 C.3       5 UNK         0.0716 
     19 N          26.6488   27.5101   -0.9798 N.am      5 UNK        -0.4135 
     20 C          26.1968   27.7695   -2.2105 C.2       4 UNK         0.5031 
     21 O          26.4103   28.8200   -2.8196 O.2       4 UNK        -0.5229 
     22 CA         25.4263   26.6158   -2.8835 C.3       4 UNK         0.0329 
     23 CB         24.9907   26.9348   -4.3299 C.3       4 UNK        -0.2001 
     24 N          26.1879   25.3576   -2.8263 N.am      4 UNK        -0.4303 
     25 C          27.4212   25.1276   -3.3166 C.2       3 UNK         0.5044 
     26 O          28.0483   25.9378   -3.9999 O.2       3 UNK        -0.5152 
     27 CA         28.0861   23.7824   -2.9635 C.3       3 UNK         0.0319 
     28 CB         29.5956   23.9325   -2.6890 C.3       3 UNK        -0.2001 
     29 N          27.4340   23.1592   -1.8128 N.am      3 UNK        -0.4354 
     30 C          27.3015   21.8516   -1.5821 C.2       2 UNK         0.4964 
     31 O          27.8146   20.9852   -2.2925 O.2       2 UNK        -0.5047 
     32 CA         26.4263   21.4439   -0.3726 C.3       2 UNK         0.0288 
     33 CB         26.6114   19.9626    0.0099 C.3       2 UNK        -0.2113 
     34 N          26.5886   22.2591    0.8410 N.am      2 UNK        -0.4145 
     35 C          26.2274   23.5380    1.0184 C.2       1 UNK         0.5006 
     36 O          25.8296   24.2737    0.1071 O.2       1 UNK        -0.5103 
     37 C          27.0289   28.5549    1.1798 C.2       5 UNK         0.5055 
     38 O          26.3893   27.6545    1.7292 O.2       5 UNK        -0.5220 
     39 N          27.3093   29.7293    1.7570 N.am      6 UNK        -0.4450 
     40 CA         26.9480   30.0723    3.1351 C.3       6 UNK         0.0367 
     41 CB         27.0252   31.5979    3.3133 C.3       6 UNK        -0.1929 
     42 C          27.8286   29.3701    4.1853 C.2       6 UNK         0.5070 
     43 O          27.3754   29.1939    5.3160 O.2       6 UNK        -0.5237 
     44 N          29.0636   29.0066    3.7986 N.am      7 UNK        -0.4739 
     45 CA         30.1085   28.3865    4.6266 C.3       7 UNK         0.0276 
     46 CB         29.7644   26.9174    4.9383 C.3       7 UNK        -0.1927 
     47 C          30.4659   29.2152    5.8784 C.2       7 UNK         0.5013 
     48 O          30.5682   28.6753    6.9822 O.2       7 UNK        -0.5193 
     49 N          30.6352   30.5260    5.6655 N.am      8 UNK        -0.4253 
     50 CA         31.1019   31.4936    6.6564 C.3       8 UNK         0.0242 
     51 CB         30.1934   32.7403    6.5998 C.3       8 UNK        -0.2000 
     52 C          32.5897   31.7766    6.3836 C.2       8 UNK         0.4948 
     53 O          33.3950   30.8441    6.4122 O.2       8 UNK        -0.5275 
     54 N          32.9353   33.0347    6.0682 N.am      9 UNK        -0.4246 
     55 CA         34.2890   33.4861    5.7118 C.3       9 UNK         0.0261 
     56 CB         34.2758   35.0081    5.4967 C.3       9 UNK        -0.1959 
     57 C          34.8955   32.7747    4.4856 C.2       9 UNK         0.5033 
     58 O          36.1203   32.7089    4.3714 O.2       9 UNK        -0.5390 
     59 N          34.0349   32.2121    3.6236 N.am      10 UNK        -0.4215 
     60 CA         34.3795   31.3550    2.4859 C.3       10 UNK         0.0240 
     61 CB         33.0863   30.9390    1.7644 C.3       10 UNK        -0.1982 
     62 C          35.2031   30.1054    2.8555 C.2       10 UNK         0.4970 
     63 O          35.9326   29.6059    1.9983 O.2       10 UNK        -0.4916 
     64 N          35.0892   29.6302    4.1044 N.am      11 UNK        -0.4279 
     65 CA         35.9112   28.5372    4.6471 C.3       11 UNK         0.1003 
     66 C          37.3508   28.9672    5.0577 C.2       11 UNK         0.5709 
     67 N          37.7086   30.2470    5.0358 N.am      11 UNK        -0.7358 
     68 O          38.1702   28.1148    5.3927 O.2       11 UNK        -0.4999 
     69 C69        35.2015   27.7794    5.8026 C.3       12 UNK        -0.0954 
     70 S70        33.5220   27.2177    5.3746 S.3       12 UNK        -0.2268 
     71 C71        33.8664   25.7419    4.3694 C.3       12 UNK         0.0203 
     72 H72        22.7848   26.4243    3.9177 H         1 UNK         0.0888 
     73 H73        23.9054   27.2372    2.8243 H         1 UNK         0.0888 
     74 H74        22.5347   26.3377    2.1709 H         1 UNK         0.0888 
     75 H75        25.7914   26.1264    2.4096 H         1 UNK         0.3017 
     76 H76        26.0731   23.3019    3.1473 H         1 UNK         0.0873 
     77 H77        27.7875   25.2571    3.5844 H         1 UNK         0.0745 
     78 H78        28.2726   25.0461    1.9310 H         1 UNK         0.0745 
     79 H79        29.7323   22.9699    1.1151 H         1 UNK         0.0705 
     80 H80        30.7734   22.1834    2.2734 H         1 UNK         0.0705 
     81 H81        32.0584   23.7142    3.9878 H         1 UNK         0.1334 
     82 H82        33.3900   27.4243    2.2925 H         1 UNK         0.1417 
     83 H83        30.3634   25.1189    0.3178 H         1 UNK         0.1562 
     84 H84        31.6400   27.0103   -0.8635 H         1 UNK         0.0748 
     85 H85        32.6663   28.0530    0.0805 H         1 UNK         0.0748 
     86 H86        28.8699   26.7180    0.4570 H         1 UNK         0.0940 
     87 H87        29.2196   27.2416   -1.1685 H         1 UNK         0.0940 
     88 H88        27.7223   29.2985   -0.7156 H         1 UNK         0.0703 
     89 H89        26.3512   26.6614   -0.5155 H         1 UNK         0.3081 
     90 H90        24.5220   26.4614   -2.2927 H         1 UNK         0.0719 
     91 H91        24.3471   27.8148   -4.3569 H         1 UNK         0.0809 
     92 H92        25.8440   27.1381   -4.9776 H         1 UNK         0.0809 
     93 H93        24.4287   26.1089   -4.7656 H         1 UNK         0.0809 
     94 H94        25.7518   24.6222   -2.2867 H         1 UNK         0.2990 
     95 H95        27.9538   23.1380   -3.8350 H         1 UNK         0.0690 
     96 H96        30.0515   22.9781   -2.4252 H         1 UNK         0.0788 
     97 H97        29.7852   24.6329   -1.8767 H         1 UNK         0.0788 
     98 H98        30.1196   24.3056   -3.5698 H         1 UNK         0.0788 
     99 H99        26.9654   23.7839   -1.1591 H         1 UNK         0.2993 
    100 H100       25.3927   21.5669   -0.7031 H         1 UNK         0.0949 
    101 H101       27.6308   19.7580    0.3400 H         1 UNK         0.0767 
    102 H102       25.9327   19.6705    0.8116 H         1 UNK         0.0767 
    103 H103       26.4031   19.3059   -0.8361 H         1 UNK         0.0767 
    104 H104       26.9629   21.7692    1.6415 H         1 UNK         0.3013 
    105 H105       27.8464   30.4121    1.2410 H         1 UNK         0.3121 
    106 H106       25.9159   29.7599    3.3102 H         1 UNK         0.0774 
    107 H107       26.7391   31.8867    4.3258 H         1 UNK         0.0815 
    108 H108       28.0332   31.9768    3.1403 H         1 UNK         0.0815 
    109 H109       26.3497   32.1122    2.6295 H         1 UNK         0.0815 
    110 H110       29.3200   29.1824    2.8366 H         1 UNK         0.2987 
    111 H111       31.0140   28.3750    4.0175 H         1 UNK         0.0949 
    112 H112       29.7226   26.3360    4.0190 H         1 UNK         0.0806 
    113 H113       30.5288   26.4544    5.5632 H         1 UNK         0.0806 
    114 H114       28.8110   26.8183    5.4570 H         1 UNK         0.0806 
    115 H115       30.5187   30.8666    4.7230 H         1 UNK         0.3010 
    116 H116       31.0370   31.0734    7.6623 H         1 UNK         0.0829 
    117 H117       29.1601   32.4735    6.8238 H         1 UNK         0.0813 
    118 H118       30.4921   33.4842    7.3399 H         1 UNK         0.0813 
    119 H119       30.1989   33.2160    5.6181 H         1 UNK         0.0813 
    120 H120       32.2125   33.7404    6.0694 H         1 UNK         0.3038 
    121 H121       34.9389   33.2656    6.5613 H         1 UNK         0.0769 
    122 H122       35.2744   35.3769    5.2571 H         1 UNK         0.0811 
    123 H123       33.9466   35.5341    6.3931 H         1 UNK         0.0811 
    124 H124       33.6174   35.2952    4.6758 H         1 UNK         0.0811 
    125 H125       33.0515   32.3432    3.8036 H         1 UNK         0.3204 
    126 H126       34.9837   31.9522    1.8000 H         1 UNK         0.0748 
    127 H127       33.3099   30.3466    0.8763 H         1 UNK         0.0771 
    128 H128       32.4417   30.3337    2.4035 H         1 UNK         0.0771 
    129 H129       32.5152   31.8065    1.4332 H         1 UNK         0.0771 
    130 H130       34.4740   30.0886    4.7676 H         1 UNK         0.2980 
    131 H131       36.0562   27.8151    3.8423 H         1 UNK         0.0545 
    132 H132       38.6483   30.4950    5.3008 H         1 UNK         0.3459 
    133 H133       37.0590   30.9742    4.7568 H         1 UNK         0.3459 
    134 H134       35.7850   26.9119    6.1164 H         1 UNK         0.0616 
    135 H135       35.1181   28.4257    6.6783 H         1 UNK         0.0616 
    136 H136       33.8806   24.8674    5.0213 H         1 UNK         0.0634 
    137 H137       34.8581   25.8095    3.9220 H         1 UNK         0.0634 
@<TRIPOS>BOND
     1    1    2 1    
     2    1   72 1    
     3    1   73 1    
     4    1   74 1    
     5    2    3 2    
     6    2    4 am   BACKBONE|DICT|INTERRES
     7    4    5 1    
     8    4   75 1    
     9    5    6 1    
    10    5   35 1    
    11    5   76 1    
    12    6    7 1    
    13    6   77 1    
    14    6   78 1    
    15    7    8 1    
    16    8    9 1    
    17    8   79 1    
    18    8   80 1    
    19    9   10 ar   
    20    9   14 ar   
    21   10   11 ar   
    22   10   81 1    
    23   11   12 ar   
    24   11   71 1    
    25   12   13 ar   
    26   12   82 1    
    27   13   14 ar   
    28   13   15 1    
    29   14   83 1    
    30   15   16 1    
    31   15   84 1    
    32   15   85 1    
    33   16   17 1    
    34   17   18 1    
    35   17   86 1    
    36   17   87 1    
    37   18   19 1    
    38   18   37 1    
    39   18   88 1    
    40   19   20 am   BACKBONE|DICT|INTERRES
    41   19   89 1    
    42   20   21 2    
    43   20   22 1    
    44   22   23 1    
    45   22   24 1    
    46   22   90 1    
    47   23   91 1    
    48   23   92 1    
    49   23   93 1    
    50   24   25 am   BACKBONE|DICT|INTERRES
    51   24   94 1    
    52   25   26 2    
    53   25   27 1    
    54   27   28 1    
    55   27   29 1    
    56   27   95 1    
    57   28   96 1    
    58   28   97 1    
    59   28   98 1    
    60   29   30 am   BACKBONE|DICT|INTERRES
    61   29   99 1    
    62   30   31 2    
    63   30   32 1    
    64   32   33 1    
    65   32   34 1    
    66   32  100 1    
    67   33  101 1    
    68   33  102 1    
    69   33  103 1    
    70   34   35 am   BACKBONE|DICT|INTERRES
    71   34  104 1    
    72   35   36 2    
    73   37   38 2    
    74   37   39 am   BACKBONE|DICT|INTERRES
    75   39   40 1    
    76   39  105 1    
    77   40   41 1    
    78   40   42 1    
    79   40  106 1    
    80   41  107 1    
    81   41  108 1    
    82   41  109 1    
    83   42   43 2    
    84   42   44 am   BACKBONE|DICT|INTERRES
    85   44   45 1    
    86   44  110 1    
    87   45   46 1    
    88   45   47 1    
    89   45  111 1    
    90   46  112 1    
    91   46  113 1    
    92   46  114 1    
    93   47   48 2    
    94   47   49 am   BACKBONE|DICT|INTERRES
    95   49   50 1    
    96   49  115 1    
    97   50   51 1    
    98   50   52 1    
    99   50  116 1    
   100   51  117 1    
   101   51  118 1    
   102   51  119 1    
   103   52   53 2    
   104   52   54 am   BACKBONE|DICT|INTERRES
   105   54   55 1    
   106   54  120 1    
   107   55   56 1    
   108   55   57 1    
   109   55  121 1    
   110   56  122 1    
   111   56  123 1    
   112   56  124 1    
   113   57   58 2    
   114   57   59 am   BACKBONE|DICT|INTERRES
   115   59   60 1    
   116   59  125 1    
   117   60   61 1    
   118   60   62 1    
   119   60  126 1    
   120   61  127 1    
   121   61  128 1    
   122   61  129 1    
   123   62   63 2    
   124   62   64 am   BACKBONE|DICT|INTERRES
   125   64   65 1    
   126   64  130 1    
   127   65   66 1    
   128   65   69 1    
   129   65  131 1    
   130   66   67 am   BACKBONE|DICT|INTERRES
   131   66   68 2    
   132   67  132 1    
   133   67  133 1    
   134   69   70 1    
   135   69  134 1    
   136   69  135 1    
   137   70   71 1    
   138   71  136 1    
   139   71  137 1    
@<TRIPOS>SUBSTRUCTURE
     1 UNK         1 GROUP             0       ****    0 ROOT    
