@<TRIPOS>MOLECULE
3R136
137   139    1
SMALL
USER_CHARGES


@<TRIPOS>ATOM
      1 CA         25.2268   23.9753    4.9124 C.3       0 UNK        -0.1979 
      2 C          25.9316   25.0956    4.1529 C.2       0 UNK         0.4864 
      3 O          25.5084   26.2452    4.2524 O.2       0 UNK        -0.5359 
      4 N          26.9990   24.8186    3.3922 N.am      1 UNK        -0.4318 
      5 CA         27.5531   23.4904    3.1158 C.3       1 UNK         0.0824 
      6 C6         29.0846   23.5202    2.9027 C.3       12 UNK        -0.0944 
      7 S7         30.0417   24.0066    4.3744 S.3       12 UNK        -0.2672 
      8 C8         31.6267   23.1652    4.0427 C.3       12 UNK         0.0333 
      9 C9         32.4800   23.8789    2.9962 C.ar      12 UNK        -0.0807 
     10 C10        33.6685   24.5128    3.3767 C.ar      12 UNK        -0.0894 
     11 C11        34.5017   25.0995    2.4193 C.ar      12 UNK        -0.0804 
     12 C12        34.1206   25.0819    1.0747 C.ar      12 UNK        -0.0824 
     13 C13        32.9269   24.4737    0.6804 C.ar      12 UNK        -0.0762 
     14 C14        32.1250   23.8536    1.6412 C.ar      12 UNK        -0.0782 
     15 C15        32.5403   24.4511   -0.7916 C.3       12 UNK         0.0230 
     16 S16        31.9309   26.0728   -1.3567 S.3       12 UNK        -0.2608 
     17 C17        30.1192   25.9047   -1.2150 C.3       12 UNK        -0.0989 
     18 CA         29.4559   27.1926   -0.6461 C.3       5 UNK         0.0716 
     19 N          28.2870   27.5983   -1.4278 N.am      5 UNK        -0.4135 
     20 C          27.8391   28.8601   -1.5121 C.2       4 UNK         0.5031 
     21 O          28.4059   29.8225   -0.9932 O.2       4 UNK        -0.5229 
     22 CA         26.5512   29.1152   -2.3170 C.3       4 UNK         0.0329 
     23 CB         26.8924   29.5754   -3.7438 C.3       4 UNK        -0.2001 
     24 N          25.6631   27.9552   -2.3882 N.am      4 UNK        -0.4303 
     25 C          24.9507   27.4703   -1.3627 C.2       3 UNK         0.5044 
     26 O          24.9227   27.9807   -0.2425 O.2       3 UNK        -0.5152 
     27 CA         24.1358   26.1894   -1.6238 C.3       3 UNK         0.0319 
     28 CB         23.8000   25.9524   -3.1146 C.3       3 UNK        -0.2001 
     29 N          24.7823   25.0048   -1.0481 N.am      3 UNK        -0.4354 
     30 C          26.0192   24.5539   -1.3035 C.2       2 UNK         0.4964 
     31 O          26.8231   25.1113   -2.0555 O.2       2 UNK        -0.5047 
     32 CA         26.4325   23.2847   -0.5541 C.3       2 UNK         0.0288 
     33 CB         27.5324   22.4922   -1.2898 C.3       2 UNK        -0.2113 
     34 N          26.9057   23.6779    0.7665 N.am      2 UNK        -0.4145 
     35 C          26.8779   22.9087    1.8618 C.2       1 UNK         0.5006 
     36 O          26.3631   21.7907    1.9086 O.2       1 UNK        -0.5103 
     37 C          29.0148   27.0092    0.8139 C.2       5 UNK         0.5055 
     38 O          28.1023   26.2153    1.0637 O.2       5 UNK        -0.5220 
     39 N          29.6531   27.7151    1.7515 N.am      6 UNK        -0.4450 
     40 CA         29.3649   27.6011    3.1774 C.3       6 UNK         0.0367 
     41 CB         28.0998   28.4004    3.5410 C.3       6 UNK        -0.1929 
     42 C          30.5647   28.0973    3.9760 C.2       6 UNK         0.5070 
     43 O          30.9947   29.2306    3.7664 O.2       6 UNK        -0.5237 
     44 N          31.0540   27.2837    4.9203 N.am      7 UNK        -0.4739 
     45 CA         32.1554   27.6287    5.8300 C.3       7 UNK         0.0276 
     46 CB         32.4526   26.4339    6.7488 C.3       7 UNK        -0.1927 
     47 C          31.8821   28.8968    6.6612 C.2       7 UNK         0.5013 
     48 O          32.7862   29.7108    6.8485 O.2       7 UNK        -0.5193 
     49 N          30.6174   29.0781    7.0693 N.am      8 UNK        -0.4253 
     50 CA         30.1066   30.2692    7.7554 C.3       8 UNK         0.0242 
     51 CB         28.6790   29.9864    8.2512 C.3       8 UNK        -0.2000 
     52 C          30.1314   31.5517    6.8992 C.2       8 UNK         0.4948 
     53 O          30.1332   32.6444    7.4664 O.2       8 UNK        -0.5275 
     54 N          30.1694   31.4069    5.5669 N.am      9 UNK        -0.4246 
     55 CA         30.3031   32.4963    4.5966 C.3       9 UNK         0.0261 
     56 CB         29.3107   32.2592    3.4431 C.3       9 UNK        -0.1959 
     57 C          31.7491   32.6168    4.0750 C.2       9 UNK         0.5033 
     58 O          31.9593   33.2507    3.0397 O.2       9 UNK        -0.5390 
     59 N          32.7129   32.0094    4.7866 N.am      10 UNK        -0.4215 
     60 CA         34.1382   31.9114    4.4575 C.3       10 UNK         0.0240 
     61 CB         34.8107   33.3017    4.4191 C.3       10 UNK        -0.1982 
     62 C          34.3994   31.0646    3.1973 C.2       10 UNK         0.4970 
     63 O          35.2414   31.4321    2.3759 O.2       10 UNK        -0.4916 
     64 N          33.6900   29.9327    3.0949 N.am      11 UNK        -0.4279 
     65 CA         33.7968   28.9148    2.0428 C.3       11 UNK         0.1003 
     66 C          33.1500   29.4063    0.7235 C.2       11 UNK         0.5709 
     67 N          33.9235   29.7445   -0.3000 N.am      11 UNK        -0.7358 
     68 O          31.9260   29.4379    0.6190 O.2       11 UNK        -0.4999 
     69 C69        35.2200   28.3015    1.9067 C.3       12 UNK        -0.0954 
     70 S70        35.6964   27.4091    3.4258 S.3       12 UNK        -0.2268 
     71 C71        35.8413   25.6976    2.8282 C.3       12 UNK         0.0203 
     72 H72        24.9139   23.1782    4.2385 H         1 UNK         0.0888 
     73 H73        25.8827   23.5570    5.6755 H         1 UNK         0.0888 
     74 H74        24.3352   24.3539    5.4118 H         1 UNK         0.0888 
     75 H75        27.4049   25.5674    2.8413 H         1 UNK         0.3017 
     76 H76        27.3555   22.8132    3.9481 H         1 UNK         0.0873 
     77 H77        29.3440   24.2070    2.0979 H         1 UNK         0.0745 
     78 H78        29.4263   22.5313    2.5900 H         1 UNK         0.0745 
     79 H79        31.4448   22.1363    3.7297 H         1 UNK         0.0705 
     80 H80        32.1720   23.0944    4.9851 H         1 UNK         0.0705 
     81 H81        33.9697   24.5184    4.4150 H         1 UNK         0.1334 
     82 H82        34.7606   25.5252    0.3244 H         1 UNK         0.1417 
     83 H83        31.2360   23.3332    1.3211 H         1 UNK         0.1562 
     84 H84        31.8007   23.6754   -0.9960 H         1 UNK         0.0748 
     85 H85        33.4182   24.1877   -1.3835 H         1 UNK         0.0748 
     86 H86        29.8686   25.0167   -0.6311 H         1 UNK         0.0940 
     87 H87        29.7485   25.6931   -2.2196 H         1 UNK         0.0940 
     88 H88        30.1777   28.0100   -0.6908 H         1 UNK         0.0703 
     89 H89        27.7233   26.8440   -1.8092 H         1 UNK         0.3081 
     90 H90        26.0108   29.9234   -1.8193 H         1 UNK         0.0719 
     91 H91        27.5307   30.4600   -3.7258 H         1 UNK         0.0809 
     92 H92        27.4227   28.8027   -4.3020 H         1 UNK         0.0809 
     93 H93        25.9939   29.8384   -4.3024 H         1 UNK         0.0809 
     94 H94        25.6426   27.4479   -3.2612 H         1 UNK         0.2990 
     95 H95        23.1909   26.3174   -1.0934 H         1 UNK         0.0690 
     96 H96        23.1096   25.1163   -3.2278 H         1 UNK         0.0788 
     97 H97        24.6833   25.7267   -3.7130 H         1 UNK         0.0788 
     98 H98        23.3149   26.8258   -3.5529 H         1 UNK         0.0788 
     99 H99        24.2299   24.5044   -0.3654 H         1 UNK         0.2993 
    100 H100       25.5516   22.6458   -0.4579 H         1 UNK         0.0949 
    101 H101       27.2166   22.2362   -2.3019 H         1 UNK         0.0767 
    102 H102       28.4583   23.0627   -1.3704 H         1 UNK         0.0767 
    103 H103       27.7600   21.5585   -0.7754 H         1 UNK         0.0767 
    104 H104       27.3096   24.6135    0.8290 H         1 UNK         0.3013 
    105 H105       30.3960   28.3617    1.4929 H         1 UNK         0.3121 
    106 H106       29.1996   26.5531    3.4217 H         1 UNK         0.0774 
    107 H107       27.2255   28.0348    3.0025 H         1 UNK         0.0815 
    108 H108       27.8772   28.3203    4.6057 H         1 UNK         0.0815 
    109 H109       28.2097   29.4587    3.3063 H         1 UNK         0.0815 
    110 H110       30.6610   26.3557    5.0162 H         1 UNK         0.2987 
    111 H111       33.0408   27.8186    5.2193 H         1 UNK         0.0949 
    112 H112       32.7108   25.5450    6.1744 H         1 UNK         0.0806 
    113 H113       33.2955   26.6489    7.4071 H         1 UNK         0.0806 
    114 H114       31.5989   26.1856    7.3805 H         1 UNK         0.0806 
    115 H115       29.9467   28.3536    6.8582 H         1 UNK         0.3010 
    116 H116       30.7430   30.4494    8.6245 H         1 UNK         0.0829 
    117 H117       28.6552   29.1340    8.9305 H         1 UNK         0.0813 
    118 H118       28.2780   30.8424    8.7960 H         1 UNK         0.0813 
    119 H119       27.9978   29.7786    7.4249 H         1 UNK         0.0813 
    120 H120       30.2263   30.4740    5.1718 H         1 UNK         0.3038 
    121 H121       30.0512   33.4493    5.0662 H         1 UNK         0.0769 
    122 H122       29.2864   33.1144    2.7667 H         1 UNK         0.0811 
    123 H123       28.2959   32.1117    3.8124 H         1 UNK         0.0811 
    124 H124       29.5860   31.3867    2.8492 H         1 UNK         0.0811 
    125 H125       32.4340   31.4928    5.6127 H         1 UNK         0.3204 
    126 H126       34.5933   31.3588    5.2810 H         1 UNK         0.0748 
    127 H127       35.8933   33.2072    4.3262 H         1 UNK         0.0771 
    128 H128       34.4662   33.8991    3.5747 H         1 UNK         0.0771 
    129 H129       34.6128   33.8637    5.3317 H         1 UNK         0.0771 
    130 H130       32.9133   29.7882    3.7296 H         1 UNK         0.2980 
    131 H131       33.1497   28.0995    2.3694 H         1 UNK         0.0545 
    132 H132       33.4935   30.0459   -1.1596 H         1 UNK         0.3459 
    133 H133       34.9269   29.7427   -0.2108 H         1 UNK         0.3459 
    134 H134       35.2649   27.6233    1.0560 H         1 UNK         0.0616 
    135 H135       35.9710   29.0655    1.7068 H         1 UNK         0.0616 
    136 H136       36.5463   25.6653    1.9959 H         1 UNK         0.0634 
    137 H137       36.2832   25.0907    3.6196 H         1 UNK         0.0634 
@<TRIPOS>BOND
     1    1    2 1    
     2    1   72 1    
     3    1   73 1    
     4    1   74 1    
     5    2    3 2    
     6    2    4 am   BACKBONE|DICT|INTERRES
     7    4    5 1    
     8    4   75 1    
     9    5    6 1    
    10    5   35 1    
    11    5   76 1    
    12    6    7 1    
    13    6   77 1    
    14    6   78 1    
    15    7    8 1    
    16    8    9 1    
    17    8   79 1    
    18    8   80 1    
    19    9   10 ar   
    20    9   14 ar   
    21   10   11 ar   
    22   10   81 1    
    23   11   12 ar   
    24   11   71 1    
    25   12   13 ar   
    26   12   82 1    
    27   13   14 ar   
    28   13   15 1    
    29   14   83 1    
    30   15   16 1    
    31   15   84 1    
    32   15   85 1    
    33   16   17 1    
    34   17   18 1    
    35   17   86 1    
    36   17   87 1    
    37   18   19 1    
    38   18   37 1    
    39   18   88 1    
    40   19   20 am   BACKBONE|DICT|INTERRES
    41   19   89 1    
    42   20   21 2    
    43   20   22 1    
    44   22   23 1    
    45   22   24 1    
    46   22   90 1    
    47   23   91 1    
    48   23   92 1    
    49   23   93 1    
    50   24   25 am   BACKBONE|DICT|INTERRES
    51   24   94 1    
    52   25   26 2    
    53   25   27 1    
    54   27   28 1    
    55   27   29 1    
    56   27   95 1    
    57   28   96 1    
    58   28   97 1    
    59   28   98 1    
    60   29   30 am   BACKBONE|DICT|INTERRES
    61   29   99 1    
    62   30   31 2    
    63   30   32 1    
    64   32   33 1    
    65   32   34 1    
    66   32  100 1    
    67   33  101 1    
    68   33  102 1    
    69   33  103 1    
    70   34   35 am   BACKBONE|DICT|INTERRES
    71   34  104 1    
    72   35   36 2    
    73   37   38 2    
    74   37   39 am   BACKBONE|DICT|INTERRES
    75   39   40 1    
    76   39  105 1    
    77   40   41 1    
    78   40   42 1    
    79   40  106 1    
    80   41  107 1    
    81   41  108 1    
    82   41  109 1    
    83   42   43 2    
    84   42   44 am   BACKBONE|DICT|INTERRES
    85   44   45 1    
    86   44  110 1    
    87   45   46 1    
    88   45   47 1    
    89   45  111 1    
    90   46  112 1    
    91   46  113 1    
    92   46  114 1    
    93   47   48 2    
    94   47   49 am   BACKBONE|DICT|INTERRES
    95   49   50 1    
    96   49  115 1    
    97   50   51 1    
    98   50   52 1    
    99   50  116 1    
   100   51  117 1    
   101   51  118 1    
   102   51  119 1    
   103   52   53 2    
   104   52   54 am   BACKBONE|DICT|INTERRES
   105   54   55 1    
   106   54  120 1    
   107   55   56 1    
   108   55   57 1    
   109   55  121 1    
   110   56  122 1    
   111   56  123 1    
   112   56  124 1    
   113   57   58 2    
   114   57   59 am   BACKBONE|DICT|INTERRES
   115   59   60 1    
   116   59  125 1    
   117   60   61 1    
   118   60   62 1    
   119   60  126 1    
   120   61  127 1    
   121   61  128 1    
   122   61  129 1    
   123   62   63 2    
   124   62   64 am   BACKBONE|DICT|INTERRES
   125   64   65 1    
   126   64  130 1    
   127   65   66 1    
   128   65   69 1    
   129   65  131 1    
   130   66   67 am   BACKBONE|DICT|INTERRES
   131   66   68 2    
   132   67  132 1    
   133   67  133 1    
   134   69   70 1    
   135   69  134 1    
   136   69  135 1    
   137   70   71 1    
   138   71  136 1    
   139   71  137 1    
@<TRIPOS>SUBSTRUCTURE
     1 UNK         1 GROUP             0       ****    0 ROOT    
