@<TRIPOS>MOLECULE
3R136
137   139    1
SMALL
USER_CHARGES


@<TRIPOS>ATOM
      1 CA         29.9532   20.3272   -2.7531 C.3       0 UNK        -0.1979 
      2 C          29.3712   21.7228   -2.9232 C.2       0 UNK         0.4864 
      3 O          28.8872   22.0562   -4.0062 O.2       0 UNK        -0.5359 
      4 N          29.4198   22.5412   -1.8647 N.am      1 UNK        -0.4318 
      5 CA         28.8586   23.8945   -1.8285 C.3       1 UNK         0.0824 
      6 C6         29.4437   24.7289   -0.6602 C.3       12 UNK        -0.0944 
      7 S7         31.1857   25.1653   -0.9740 S.3       12 UNK        -0.2672 
      8 C8         32.0964   24.0044    0.1010 C.3       12 UNK         0.0333 
      9 C9         32.1937   24.4687    1.5508 C.ar      12 UNK        -0.0807 
     10 C10        32.6309   25.7627    1.8511 C.ar      12 UNK        -0.0894 
     11 C11        32.7612   26.1823    3.1770 C.ar      12 UNK        -0.0804 
     12 C12        32.4726   25.2923    4.2144 C.ar      12 UNK        -0.0824 
     13 C13        32.0257   23.9977    3.9303 C.ar      12 UNK        -0.0762 
     14 C14        31.8929   23.5901    2.5977 C.ar      12 UNK        -0.0782 
     15 C15        31.6677   23.0457    5.0631 C.3       12 UNK         0.0230 
     16 S16        29.8660   22.8108    5.2092 S.3       12 UNK        -0.2608 
     17 C17        29.2976   24.4630    5.7476 C.3       12 UNK        -0.0989 
     18 CA         28.9109   25.3853    4.5589 C.3       5 UNK         0.0716 
     19 N          27.9500   24.7865    3.6313 N.am      5 UNK        -0.4135 
     20 C          26.6492   24.5561    3.8417 C.2       4 UNK         0.5031 
     21 O          26.0608   24.7606    4.9054 O.2       4 UNK        -0.5229 
     22 CA         25.8728   24.0431    2.6166 C.3       4 UNK         0.0329 
     23 CB         24.7670   23.0512    3.0193 C.3       4 UNK        -0.2001 
     24 N          25.2781   25.1141    1.8095 N.am      4 UNK        -0.4303 
     25 C          25.8935   26.1899    1.2967 C.2       3 UNK         0.5044 
     26 O          27.0731   26.4907    1.4940 O.2       3 UNK        -0.5152 
     27 CA         25.0678   27.0110    0.2964 C.3       3 UNK         0.0319 
     28 CB         25.5072   28.4842    0.2412 C.3       3 UNK        -0.2001 
     29 N          25.2581   26.4046   -1.0176 N.am      3 UNK        -0.4354 
     30 C          24.5766   25.3440   -1.4714 C.2       2 UNK         0.4964 
     31 O          23.5631   24.8953   -0.9345 O.2       2 UNK        -0.5047 
     32 CA         25.1691   24.6308   -2.6976 C.3       2 UNK         0.0288 
     33 CB         24.7384   25.3287   -3.9981 C.3       2 UNK        -0.2113 
     34 N          26.6340   24.5444   -2.6429 N.am      2 UNK        -0.4145 
     35 C          27.3223   23.8198   -1.7463 C.2       1 UNK         0.5006 
     36 O          26.7983   23.1215   -0.8747 O.2       1 UNK        -0.5103 
     37 C          28.4961   26.8091    4.9894 C.2       5 UNK         0.5055 
     38 O          28.6190   27.1625    6.1639 O.2       5 UNK        -0.5220 
     39 N          28.0121   27.6001    4.0229 N.am      6 UNK        -0.4450 
     40 CA         27.6067   28.9952    4.1919 C.3       6 UNK         0.0367 
     41 CB         26.1347   29.0550    4.6457 C.3       6 UNK        -0.1929 
     42 C          27.8696   29.7905    2.9010 C.2       6 UNK         0.5070 
     43 O          27.0951   30.6875    2.5672 O.2       6 UNK        -0.5237 
     44 N          28.9360   29.4212    2.1793 N.am      7 UNK        -0.4739 
     45 CA         29.3427   30.0009    0.9016 C.3       7 UNK         0.0276 
     46 CB         30.2538   29.0053    0.1567 C.3       7 UNK        -0.1927 
     47 C          29.9828   31.3899    1.0740 C.2       7 UNK         0.5013 
     48 O          29.2965   32.3947    0.8812 O.2       7 UNK        -0.5193 
     49 N          31.2805   31.4317    1.4022 N.am      8 UNK        -0.4253 
     50 CA         32.0892   32.6460    1.5118 C.3       8 UNK         0.0242 
     51 CB         32.3125   33.2669    0.1141 C.3       8 UNK        -0.2000 
     52 C          33.4363   32.3132    2.1671 C.2       8 UNK         0.4948 
     53 O          33.7632   31.1351    2.3362 O.2       8 UNK        -0.5275 
     54 N          34.2051   33.3662    2.4830 N.am      9 UNK        -0.4246 
     55 CA         35.5760   33.3588    3.0070 C.3       9 UNK         0.0261 
     56 CB         36.5672   32.8156    1.9527 C.3       9 UNK        -0.1959 
     57 C          35.6907   32.6522    4.3683 C.2       9 UNK         0.5033 
     58 O          35.5483   33.3068    5.4018 O.2       9 UNK        -0.5390 
     59 N          35.9448   31.3380    4.3456 N.am      10 UNK        -0.4215 
     60 CA         36.0592   30.4764    5.5247 C.3       10 UNK         0.0240 
     61 CB         36.7467   29.1635    5.1125 C.3       10 UNK        -0.1982 
     62 C          34.7133   30.1872    6.2165 C.2       10 UNK         0.4970 
     63 O          34.7205   29.6972    7.3465 O.2       10 UNK        -0.4916 
     64 N          33.5980   30.4742    5.5386 N.am      11 UNK        -0.4279 
     65 CA         32.2283   30.2442    6.0068 C.3       11 UNK         0.1003 
     66 C          31.2870   31.4252    5.6434 C.2       11 UNK         0.5709 
     67 N          30.0603   31.4176    6.1481 N.am      11 UNK        -0.7358 
     68 O          31.6520   32.3522    4.9230 O.2       11 UNK        -0.4999 
     69 C69        31.6974   28.8633    5.5366 C.3       12 UNK        -0.0954 
     70 S70        31.7308   28.6629    3.7226 S.3       12 UNK        -0.2268 
     71 C71        33.1889   27.6071    3.4793 C.3       12 UNK         0.0203 
     72 H72        29.1827   19.5761   -2.9252 H         1 UNK         0.0888 
     73 H73        30.7549   20.1649   -3.4731 H         1 UNK         0.0888 
     74 H74        30.3596   20.1734   -1.7536 H         1 UNK         0.0888 
     75 H75        29.7915   22.1992   -0.9916 H         1 UNK         0.3017 
     76 H76        29.1222   24.3922   -2.7649 H         1 UNK         0.0873 
     77 H77        28.8966   25.6667   -0.5440 H         1 UNK         0.0745 
     78 H78        29.3486   24.2052    0.2929 H         1 UNK         0.0745 
     79 H79        31.6425   23.0151    0.0337 H         1 UNK         0.0705 
     80 H80        33.1094   23.9006   -0.2896 H         1 UNK         0.0705 
     81 H81        32.8630   26.4491    1.0482 H         1 UNK         0.1334 
     82 H82        32.5674   25.6189    5.2410 H         1 UNK         0.1417 
     83 H83        31.5532   22.5863    2.3811 H         1 UNK         0.1562 
     84 H84        32.0667   23.4001    6.0149 H         1 UNK         0.0748 
     85 H85        32.1353   22.0774    4.8792 H         1 UNK         0.0748 
     86 H86        30.0788   24.9246    6.3544 H         1 UNK         0.0940 
     87 H87        28.4416   24.3276    6.4112 H         1 UNK         0.0940 
     88 H88        29.8037   25.5442    3.9580 H         1 UNK         0.0703 
     89 H89        28.3013   24.6339    2.6971 H         1 UNK         0.3081 
     90 H90        26.5733   23.5068    1.9728 H         1 UNK         0.0719 
     91 H91        23.9824   23.5347    3.6030 H         1 UNK         0.0809 
     92 H92        24.3032   22.5971    2.1433 H         1 UNK         0.0809 
     93 H93        25.1724   22.2406    3.6264 H         1 UNK         0.0809 
     94 H94        24.3194   24.9606    1.5291 H         1 UNK         0.2990 
     95 H95        24.0142   26.9780    0.5826 H         1 UNK         0.0690 
     96 H96        25.3755   28.9625    1.2121 H         1 UNK         0.0788 
     97 H97        24.9143   29.0473   -0.4794 H         1 UNK         0.0788 
     98 H98        26.5568   28.5890   -0.0355 H         1 UNK         0.0788 
     99 H99        26.0901   26.6821   -1.5171 H         1 UNK         0.2993 
    100 H100       24.7735   23.6126   -2.7077 H         1 UNK         0.0949 
    101 H101       25.1246   26.3469   -4.0611 H         1 UNK         0.0767 
    102 H102       25.0866   24.7822   -4.8750 H         1 UNK         0.0767 
    103 H103       23.6511   25.3876   -4.0664 H         1 UNK         0.0767 
    104 H104       27.1433   25.0685   -3.3402 H         1 UNK         0.3013 
    105 H105       27.8816   27.2156    3.0880 H         1 UNK         0.3121 
    106 H106       28.2261   29.4570    4.9630 H         1 UNK         0.0774 
    107 H107       25.8176   30.0836    4.8214 H         1 UNK         0.0815 
    108 H108       25.4688   28.6278    3.8952 H         1 UNK         0.0815 
    109 H109       25.9838   28.5084    5.5767 H         1 UNK         0.0815 
    110 H110       29.5493   28.7168    2.5659 H         1 UNK         0.2987 
    111 H111       28.4471   30.1402    0.2922 H         1 UNK         0.0949 
    112 H112       30.6002   29.4241   -0.7891 H         1 UNK         0.0806 
    113 H113       29.7170   28.0856   -0.0770 H         1 UNK         0.0806 
    114 H114       31.1354   28.7299    0.7359 H         1 UNK         0.0806 
    115 H115       31.7850   30.5788    1.6149 H         1 UNK         0.3010 
    116 H116       31.5650   33.3554    2.1559 H         1 UNK         0.0829 
    117 H117       32.8162   32.5689   -0.5559 H         1 UNK         0.0813 
    118 H118       31.3733   33.5587   -0.3553 H         1 UNK         0.0813 
    119 H119       32.9263   34.1666    0.1674 H         1 UNK         0.0813 
    120 H120       33.8135   34.2869    2.3399 H         1 UNK         0.3038 
    121 H121       35.8396   34.4028    3.1846 H         1 UNK         0.0769 
    122 H122       36.3224   31.8049    1.6253 H         1 UNK         0.0811 
    123 H123       37.5851   32.7969    2.3448 H         1 UNK         0.0811 
    124 H124       36.5780   33.4504    1.0666 H         1 UNK         0.0811 
    125 H125       35.9674   30.8829    3.4431 H         1 UNK         0.3204 
    126 H126       36.6950   30.9810    6.2553 H         1 UNK         0.0748 
    127 H127       37.7407   29.3479    4.7044 H         1 UNK         0.0771 
    128 H128       36.8692   28.4987    5.9688 H         1 UNK         0.0771 
    129 H129       36.1698   28.6239    4.3605 H         1 UNK         0.0771 
    130 H130       33.6674   30.8892    4.6172 H         1 UNK         0.2980 
    131 H131       32.2442   30.2367    7.0981 H         1 UNK         0.0545 
    132 H132       29.7517   30.6801    6.7614 H         1 UNK         0.3459 
    133 H133       29.4425   32.1837    5.9326 H         1 UNK         0.3459 
    134 H134       32.2743   28.0651    6.0047 H         1 UNK         0.0616 
    135 H135       30.6747   28.7160    5.8793 H         1 UNK         0.0616 
    136 H136       33.8412   27.6348    4.3528 H         1 UNK         0.0634 
    137 H137       33.7745   28.0110    2.6520 H         1 UNK         0.0634 
@<TRIPOS>BOND
     1    1    2 1    
     2    1   72 1    
     3    1   73 1    
     4    1   74 1    
     5    2    3 2    
     6    2    4 am   BACKBONE|DICT|INTERRES
     7    4    5 1    
     8    4   75 1    
     9    5    6 1    
    10    5   35 1    
    11    5   76 1    
    12    6    7 1    
    13    6   77 1    
    14    6   78 1    
    15    7    8 1    
    16    8    9 1    
    17    8   79 1    
    18    8   80 1    
    19    9   10 ar   
    20    9   14 ar   
    21   10   11 ar   
    22   10   81 1    
    23   11   12 ar   
    24   11   71 1    
    25   12   13 ar   
    26   12   82 1    
    27   13   14 ar   
    28   13   15 1    
    29   14   83 1    
    30   15   16 1    
    31   15   84 1    
    32   15   85 1    
    33   16   17 1    
    34   17   18 1    
    35   17   86 1    
    36   17   87 1    
    37   18   19 1    
    38   18   37 1    
    39   18   88 1    
    40   19   20 am   BACKBONE|DICT|INTERRES
    41   19   89 1    
    42   20   21 2    
    43   20   22 1    
    44   22   23 1    
    45   22   24 1    
    46   22   90 1    
    47   23   91 1    
    48   23   92 1    
    49   23   93 1    
    50   24   25 am   BACKBONE|DICT|INTERRES
    51   24   94 1    
    52   25   26 2    
    53   25   27 1    
    54   27   28 1    
    55   27   29 1    
    56   27   95 1    
    57   28   96 1    
    58   28   97 1    
    59   28   98 1    
    60   29   30 am   BACKBONE|DICT|INTERRES
    61   29   99 1    
    62   30   31 2    
    63   30   32 1    
    64   32   33 1    
    65   32   34 1    
    66   32  100 1    
    67   33  101 1    
    68   33  102 1    
    69   33  103 1    
    70   34   35 am   BACKBONE|DICT|INTERRES
    71   34  104 1    
    72   35   36 2    
    73   37   38 2    
    74   37   39 am   BACKBONE|DICT|INTERRES
    75   39   40 1    
    76   39  105 1    
    77   40   41 1    
    78   40   42 1    
    79   40  106 1    
    80   41  107 1    
    81   41  108 1    
    82   41  109 1    
    83   42   43 2    
    84   42   44 am   BACKBONE|DICT|INTERRES
    85   44   45 1    
    86   44  110 1    
    87   45   46 1    
    88   45   47 1    
    89   45  111 1    
    90   46  112 1    
    91   46  113 1    
    92   46  114 1    
    93   47   48 2    
    94   47   49 am   BACKBONE|DICT|INTERRES
    95   49   50 1    
    96   49  115 1    
    97   50   51 1    
    98   50   52 1    
    99   50  116 1    
   100   51  117 1    
   101   51  118 1    
   102   51  119 1    
   103   52   53 2    
   104   52   54 am   BACKBONE|DICT|INTERRES
   105   54   55 1    
   106   54  120 1    
   107   55   56 1    
   108   55   57 1    
   109   55  121 1    
   110   56  122 1    
   111   56  123 1    
   112   56  124 1    
   113   57   58 2    
   114   57   59 am   BACKBONE|DICT|INTERRES
   115   59   60 1    
   116   59  125 1    
   117   60   61 1    
   118   60   62 1    
   119   60  126 1    
   120   61  127 1    
   121   61  128 1    
   122   61  129 1    
   123   62   63 2    
   124   62   64 am   BACKBONE|DICT|INTERRES
   125   64   65 1    
   126   64  130 1    
   127   65   66 1    
   128   65   69 1    
   129   65  131 1    
   130   66   67 am   BACKBONE|DICT|INTERRES
   131   66   68 2    
   132   67  132 1    
   133   67  133 1    
   134   69   70 1    
   135   69  134 1    
   136   69  135 1    
   137   70   71 1    
   138   71  136 1    
   139   71  137 1    
@<TRIPOS>SUBSTRUCTURE
     1 UNK         1 GROUP             0       ****    0 ROOT    
