@<TRIPOS>MOLECULE
3R136
137   139    1
SMALL
USER_CHARGES


@<TRIPOS>ATOM
      1 CA         24.5791   23.2508    3.1019 C.3       0 UNK        -0.1979 
      2 C          25.6404   24.3473    3.1309 C.2       0 UNK         0.4864 
      3 O          25.3256   25.4754    3.5026 O.2       0 UNK        -0.5359 
      4 N          26.8989   24.0779    2.7531 N.am      1 UNK        -0.4318 
      5 CA         27.4034   22.8259    2.1770 C.3       1 UNK         0.0824 
      6 C6         28.9456   22.7334    2.2456 C.3       12 UNK        -0.0944 
      7 S7         29.5734   22.7902    3.9536 S.3       12 UNK        -0.2672 
      8 C8         31.3039   22.3001    3.6858 C.3       12 UNK         0.0333 
      9 C9         32.1516   23.4507    3.1603 C.ar      12 UNK        -0.0807 
     10 C10        32.8766   24.2437    4.0548 C.ar      12 UNK        -0.0894 
     11 C11        33.7207   25.2580    3.5934 C.ar      12 UNK        -0.0804 
     12 C12        33.8031   25.4928    2.2144 C.ar      12 UNK        -0.0824 
     13 C13        33.0784   24.7153    1.3070 C.ar      12 UNK        -0.0762 
     14 C14        32.2548   23.6923    1.7858 C.ar      12 UNK        -0.0782 
     15 C15        33.2606   24.9348   -0.1895 C.3       12 UNK         0.0230 
     16 S16        32.7801   26.6107   -0.7218 S.3       12 UNK        -0.2608 
     17 C17        31.0291   26.3997   -1.1811 C.3       12 UNK        -0.0989 
     18 CA         30.1064   27.3666   -0.3992 C.3       5 UNK         0.0716 
     19 N          28.9261   27.7410   -1.1668 N.am      5 UNK        -0.4135 
     20 C          28.7493   28.8891   -1.8319 C.2       4 UNK         0.5031 
     21 O          29.6219   29.7481   -1.9610 O.2       4 UNK        -0.5229 
     22 CA         27.3648   29.1298   -2.4667 C.3       4 UNK         0.0329 
     23 CB         27.4357   28.9544   -3.9924 C.3       4 UNK        -0.2001 
     24 N          26.3296   28.2394   -1.9369 N.am      4 UNK        -0.4303 
     25 C          25.7631   28.3336   -0.7277 C.2       3 UNK         0.5044 
     26 O          25.9615   29.2667    0.0496 O.2       3 UNK        -0.5152 
     27 CA         24.8750   27.1555   -0.2879 C.3       3 UNK         0.0319 
     28 CB         23.4880   27.2045   -0.9580 C.3       3 UNK        -0.2001 
     29 N          25.5266   25.8457   -0.4530 N.am      3 UNK        -0.4354 
     30 C          25.8668   25.1998   -1.5823 C.2       2 UNK         0.4964 
     31 O          25.6026   25.6187   -2.7098 O.2       2 UNK        -0.5047 
     32 CA         26.6957   23.9096   -1.4410 C.3       2 UNK         0.0288 
     33 CB         27.9098   23.9226   -2.3888 C.3       2 UNK        -0.2113 
     34 N          27.1769   23.7385   -0.0697 N.am      2 UNK        -0.4145 
     35 C          26.9232   22.6899    0.7219 C.2       1 UNK         0.5006 
     36 O          26.3026   21.6857    0.3713 O.2       1 UNK        -0.5103 
     37 C          29.5960   26.7480    0.9071 C.2       5 UNK         0.5055 
     38 O          28.6710   25.9289    0.8653 O.2       5 UNK        -0.5220 
     39 N          30.1918   27.1657    2.0251 N.am      6 UNK        -0.4450 
     40 CA         29.8577   26.8241    3.4028 C.3       6 UNK         0.0367 
     41 CB         28.3976   27.2103    3.7314 C.3       6 UNK        -0.1929 
     42 C          30.7866   27.6491    4.2972 C.2       6 UNK         0.5070 
     43 O          31.3096   28.6736    3.8485 O.2       6 UNK        -0.5237 
     44 N          30.8925   27.2739    5.5777 N.am      7 UNK        -0.4739 
     45 CA         31.5191   28.1068    6.6150 C.3       7 UNK         0.0276 
     46 CB         31.6226   27.3121    7.9251 C.3       7 UNK        -0.1927 
     47 C          30.7690   29.4362    6.8332 C.2       7 UNK         0.5013 
     48 O          31.4034   30.4649    7.0650 O.2       7 UNK        -0.5193 
     49 N          29.4377   29.4026    6.6672 N.am      8 UNK        -0.4253 
     50 CA         28.5509   30.5706    6.6445 C.3       8 UNK         0.0242 
     51 CB         27.0908   30.0905    6.6816 C.3       8 UNK        -0.2000 
     52 C          28.7772   31.5025    5.4365 C.2       8 UNK         0.4948 
     53 O          28.4208   32.6779    5.5154 O.2       8 UNK        -0.5275 
     54 N          29.3849   30.9810    4.3607 N.am      9 UNK        -0.4246 
     55 CA         29.8088   31.7267    3.1726 C.3       9 UNK         0.0261 
     56 CB         29.4497   30.9114    1.9150 C.3       9 UNK        -0.1959 
     57 C          31.3147   32.0569    3.2328 C.2       9 UNK         0.5033 
     58 O          31.9376   32.2504    2.1869 O.2       9 UNK        -0.5390 
     59 N          31.8843   32.0818    4.4496 N.am      10 UNK        -0.4215 
     60 CA         33.2874   32.3549    4.7831 C.3       10 UNK         0.0240 
     61 CB         33.6487   33.8203    4.4578 C.3       10 UNK        -0.1982 
     62 C          34.2851   31.3497    4.1736 C.2       10 UNK         0.4970 
     63 O          35.4588   31.6884    4.0121 O.2       10 UNK        -0.4916 
     64 N          33.8122   30.1367    3.8524 N.am      11 UNK        -0.4279 
     65 CA         34.5726   29.0684    3.1917 C.3       11 UNK         0.1003 
     66 C          34.9585   29.3753    1.7116 C.2       11 UNK         0.5709 
     67 N          34.3127   30.3300    1.0491 N.am      11 UNK        -0.7358 
     68 O          35.8321   28.7264    1.1422 O.2       11 UNK        -0.4999 
     69 C69        35.7489   28.5618    4.0814 C.3       12 UNK        -0.0954 
     70 S70        36.0810   26.7741    3.9557 S.3       12 UNK        -0.2268 
     71 C71        34.5324   26.0589    4.6134 C.3       12 UNK         0.0203 
     72 H72        23.6635   23.5972    3.5809 H         1 UNK         0.0888 
     73 H73        24.3310   22.9734    2.0781 H         1 UNK         0.0888 
     74 H74        24.9118   22.3636    3.6392 H         1 UNK         0.0888 
     75 H75        27.5800   24.8232    2.7896 H         1 UNK         0.3017 
     76 H76        26.9988   21.9848    2.7426 H         1 UNK         0.0873 
     77 H77        29.4107   23.5454    1.6860 H         1 UNK         0.0745 
     78 H78        29.2868   21.8037    1.7855 H         1 UNK         0.0745 
     79 H79        31.3509   21.4503    3.0031 H         1 UNK         0.0705 
     80 H80        31.7117   21.9431    4.6328 H         1 UNK         0.0705 
     81 H81        32.8033   24.0514    5.1167 H         1 UNK         0.1334 
     82 H82        34.4507   26.2663    1.8270 H         1 UNK         0.1417 
     83 H83        31.7141   23.0667    1.0891 H         1 UNK         0.1562 
     84 H84        32.7212   24.1864   -0.7717 H         1 UNK         0.0748 
     85 H85        34.3156   24.7927   -0.4278 H         1 UNK         0.0748 
     86 H86        30.7169   25.3591   -1.0719 H         1 UNK         0.0940 
     87 H87        30.9679   26.6100   -2.2503 H         1 UNK         0.0940 
     88 H88        30.6570   28.2781   -0.1532 H         1 UNK         0.0703 
     89 H89        28.1394   27.1186   -1.0535 H         1 UNK         0.3081 
     90 H90        27.0785   30.1611   -2.2497 H         1 UNK         0.0719 
     91 H91        28.1802   29.6217   -4.4290 H         1 UNK         0.0809 
     92 H92        27.7081   27.9349   -4.2692 H         1 UNK         0.0809 
     93 H93        26.4799   29.1859   -4.4629 H         1 UNK         0.0809 
     94 H94        26.0938   27.4197   -2.4921 H         1 UNK         0.2990 
     95 H95        24.7187   27.2676    0.7866 H         1 UNK         0.0690 
     96 H96        22.8490   26.3961   -0.6027 H         1 UNK         0.0788 
     97 H97        23.5494   27.1301   -2.0440 H         1 UNK         0.0788 
     98 H98        22.9812   28.1427   -0.7285 H         1 UNK         0.0788 
     99 H99        25.8153   25.4180    0.4149 H         1 UNK         0.2993 
    100 H100       26.0402   23.0833   -1.7240 H         1 UNK         0.0949 
    101 H101       27.5955   23.9801   -3.4318 H         1 UNK         0.0767 
    102 H102       28.5624   24.7743   -2.1965 H         1 UNK         0.0767 
    103 H103       28.5039   23.0148   -2.2823 H         1 UNK         0.0767 
    104 H104       27.7219   24.5126    0.3124 H         1 UNK         0.3013 
    105 H105       30.9521   27.8336    1.9687 H         1 UNK         0.3121 
    106 H106       30.0322   25.7589    3.5614 H         1 UNK         0.0774 
    107 H107       28.1266   26.9073    4.7432 H         1 UNK         0.0815 
    108 H108       28.2381   28.2867    3.6570 H         1 UNK         0.0815 
    109 H109       27.6791   26.7420    3.0637 H         1 UNK         0.0815 
    110 H110       30.4443   26.4208    5.8821 H         1 UNK         0.2987 
    111 H111       32.5298   28.3583    6.2861 H         1 UNK         0.0949 
    112 H112       32.2209   26.4101    7.7944 H         1 UNK         0.0806 
    113 H113       32.1020   27.9066    8.7042 H         1 UNK         0.0806 
    114 H114       30.6421   27.0145    8.2989 H         1 UNK         0.0806 
    115 H115       29.0073   28.5058    6.4973 H         1 UNK         0.3010 
    116 H116       28.7448   31.1551    7.5466 H         1 UNK         0.0829 
    117 H117       26.8898   29.4962    7.5732 H         1 UNK         0.0813 
    118 H118       26.4022   30.9366    6.6980 H         1 UNK         0.0813 
    119 H119       26.8409   29.4850    5.8092 H         1 UNK         0.0813 
    120 H120       29.7052   30.0220    4.4013 H         1 UNK         0.3038 
    121 H121       29.2756   32.6779    3.1190 H         1 UNK         0.0769 
    122 H122       29.6486   31.4823    1.0071 H         1 UNK         0.0811 
    123 H123       28.3934   30.6417    1.8998 H         1 UNK         0.0811 
    124 H124       30.0315   29.9932    1.8507 H         1 UNK         0.0811 
    125 H125       31.3014   31.8505    5.2445 H         1 UNK         0.3204 
    126 H126       33.3665   32.2293    5.8640 H         1 UNK         0.0748 
    127 H127       34.6377   34.0762    4.8400 H         1 UNK         0.0771 
    128 H128       33.6581   34.0051    3.3830 H         1 UNK         0.0771 
    129 H129       32.9403   34.5135    4.9113 H         1 UNK         0.0771 
    130 H130       32.8273   29.9321    3.9863 H         1 UNK         0.2980 
    131 H131       33.8462   28.2633    3.1034 H         1 UNK         0.0545 
    132 H132       34.5596   30.5136    0.0901 H         1 UNK         0.3459 
    133 H133       33.5900   30.8780    1.4980 H         1 UNK         0.3459 
    134 H134       36.6672   29.1075    3.8578 H         1 UNK         0.0616 
    135 H135       35.5422   28.7607    5.1343 H         1 UNK         0.0616 
    136 H136       33.9002   26.8414    5.0316 H         1 UNK         0.0634 
    137 H137       34.8038   25.4118    5.4489 H         1 UNK         0.0634 
@<TRIPOS>BOND
     1    1    2 1    
     2    1   72 1    
     3    1   73 1    
     4    1   74 1    
     5    2    3 2    
     6    2    4 am   BACKBONE|DICT|INTERRES
     7    4    5 1    
     8    4   75 1    
     9    5    6 1    
    10    5   35 1    
    11    5   76 1    
    12    6    7 1    
    13    6   77 1    
    14    6   78 1    
    15    7    8 1    
    16    8    9 1    
    17    8   79 1    
    18    8   80 1    
    19    9   10 ar   
    20    9   14 ar   
    21   10   11 ar   
    22   10   81 1    
    23   11   12 ar   
    24   11   71 1    
    25   12   13 ar   
    26   12   82 1    
    27   13   14 ar   
    28   13   15 1    
    29   14   83 1    
    30   15   16 1    
    31   15   84 1    
    32   15   85 1    
    33   16   17 1    
    34   17   18 1    
    35   17   86 1    
    36   17   87 1    
    37   18   19 1    
    38   18   37 1    
    39   18   88 1    
    40   19   20 am   BACKBONE|DICT|INTERRES
    41   19   89 1    
    42   20   21 2    
    43   20   22 1    
    44   22   23 1    
    45   22   24 1    
    46   22   90 1    
    47   23   91 1    
    48   23   92 1    
    49   23   93 1    
    50   24   25 am   BACKBONE|DICT|INTERRES
    51   24   94 1    
    52   25   26 2    
    53   25   27 1    
    54   27   28 1    
    55   27   29 1    
    56   27   95 1    
    57   28   96 1    
    58   28   97 1    
    59   28   98 1    
    60   29   30 am   BACKBONE|DICT|INTERRES
    61   29   99 1    
    62   30   31 2    
    63   30   32 1    
    64   32   33 1    
    65   32   34 1    
    66   32  100 1    
    67   33  101 1    
    68   33  102 1    
    69   33  103 1    
    70   34   35 am   BACKBONE|DICT|INTERRES
    71   34  104 1    
    72   35   36 2    
    73   37   38 2    
    74   37   39 am   BACKBONE|DICT|INTERRES
    75   39   40 1    
    76   39  105 1    
    77   40   41 1    
    78   40   42 1    
    79   40  106 1    
    80   41  107 1    
    81   41  108 1    
    82   41  109 1    
    83   42   43 2    
    84   42   44 am   BACKBONE|DICT|INTERRES
    85   44   45 1    
    86   44  110 1    
    87   45   46 1    
    88   45   47 1    
    89   45  111 1    
    90   46  112 1    
    91   46  113 1    
    92   46  114 1    
    93   47   48 2    
    94   47   49 am   BACKBONE|DICT|INTERRES
    95   49   50 1    
    96   49  115 1    
    97   50   51 1    
    98   50   52 1    
    99   50  116 1    
   100   51  117 1    
   101   51  118 1    
   102   51  119 1    
   103   52   53 2    
   104   52   54 am   BACKBONE|DICT|INTERRES
   105   54   55 1    
   106   54  120 1    
   107   55   56 1    
   108   55   57 1    
   109   55  121 1    
   110   56  122 1    
   111   56  123 1    
   112   56  124 1    
   113   57   58 2    
   114   57   59 am   BACKBONE|DICT|INTERRES
   115   59   60 1    
   116   59  125 1    
   117   60   61 1    
   118   60   62 1    
   119   60  126 1    
   120   61  127 1    
   121   61  128 1    
   122   61  129 1    
   123   62   63 2    
   124   62   64 am   BACKBONE|DICT|INTERRES
   125   64   65 1    
   126   64  130 1    
   127   65   66 1    
   128   65   69 1    
   129   65  131 1    
   130   66   67 am   BACKBONE|DICT|INTERRES
   131   66   68 2    
   132   67  132 1    
   133   67  133 1    
   134   69   70 1    
   135   69  134 1    
   136   69  135 1    
   137   70   71 1    
   138   71  136 1    
   139   71  137 1    
@<TRIPOS>SUBSTRUCTURE
     1 UNK         1 GROUP             0       ****    0 ROOT    
