@<TRIPOS>MOLECULE
3R136
137   139    1
SMALL
USER_CHARGES


@<TRIPOS>ATOM
      1 CA         29.9091   17.7035    0.2441 C.3       0 UNK        -0.1979 
      2 C          30.1612   19.1185   -0.2554 C.2       0 UNK         0.4864 
      3 O          30.5504   19.3000   -1.4104 O.2       0 UNK        -0.5359 
      4 N          29.9510   20.1203    0.6074 N.am      1 UNK        -0.4318 
      5 CA         30.0628   21.5457    0.2873 C.3       1 UNK         0.0824 
      6 C6         30.1685   22.4207    1.5655 C.3       12 UNK        -0.0944 
      7 S7         28.8708   22.0866    2.8124 S.3       12 UNK        -0.2672 
      8 C8         29.8076   22.1907    4.3700 C.3       12 UNK         0.0333 
      9 C9         30.0620   23.6394    4.7533 C.ar      12 UNK        -0.0807 
     10 C10        31.2821   24.2520    4.4588 C.ar      12 UNK        -0.0894 
     11 C11        31.4931   25.5972    4.7773 C.ar      12 UNK        -0.0804 
     12 C12        30.4764   26.3294    5.3995 C.ar      12 UNK        -0.0824 
     13 C13        29.2547   25.7234    5.7066 C.ar      12 UNK        -0.0762 
     14 C14        29.0603   24.3750    5.3902 C.ar      12 UNK        -0.0782 
     15 C15        28.1396   26.5113    6.3800 C.3       12 UNK         0.0230 
     16 S16        26.6297   26.5050    5.3610 S.3       12 UNK        -0.2608 
     17 C17        26.4065   28.2587    4.9169 C.3       12 UNK        -0.0989 
     18 CA         27.5485   28.9115    4.0898 C.3       5 UNK         0.0716 
     19 N          28.1061   28.0269    3.0627 N.am      5 UNK        -0.4135 
     20 C          29.0957   28.3336    2.2110 C.2       4 UNK         0.5031 
     21 O          29.7547   29.3741    2.2715 O.2       4 UNK        -0.5229 
     22 CA         29.3826   27.3435    1.0677 C.3       4 UNK         0.0329 
     23 CB         30.6921   26.5835    1.3254 C.3       4 UNK        -0.2001 
     24 N          28.3145   26.3773    0.7770 N.am      4 UNK        -0.4303 
     25 C          27.0510   26.6678    0.4281 C.2       3 UNK         0.5044 
     26 O          26.5859   27.8096    0.4340 O.2       3 UNK        -0.5152 
     27 CA         26.1674   25.4703    0.0190 C.3       3 UNK         0.0319 
     28 CB         24.8662   25.9053   -0.6879 C.3       3 UNK        -0.2001 
     29 N          26.8862   24.4693   -0.7851 N.am      3 UNK        -0.4354 
     30 C          27.5173   24.6646   -1.9545 C.2       2 UNK         0.4964 
     31 O          27.5590   25.7477   -2.5404 O.2       2 UNK        -0.5047 
     32 CA         28.2523   23.4450   -2.5461 C.3       2 UNK         0.0288 
     33 CB         28.9933   23.7743   -3.8567 C.3       2 UNK        -0.2113 
     34 N          29.2119   22.8791   -1.5924 N.am      2 UNK        -0.4145 
     35 C          28.9061   22.0020   -0.6273 C.2       1 UNK         0.5006 
     36 O          27.7591   21.5917   -0.4272 O.2       1 UNK        -0.5103 
     37 C          27.0354   30.2363    3.4880 C.2       5 UNK         0.5055 
     38 O          27.3016   31.3003    4.0482 O.2       5 UNK        -0.5220 
     39 N          26.3377   30.1425    2.3432 N.am      6 UNK        -0.4450 
     40 CA         25.7254   31.2687    1.6304 C.3       6 UNK         0.0367 
     41 CB         24.7648   30.7279    0.5593 C.3       6 UNK        -0.1929 
     42 C          26.7481   32.2281    0.9993 C.2       6 UNK         0.5070 
     43 O          26.4159   33.3866    0.7513 O.2       6 UNK        -0.5237 
     44 N          27.9804   31.7490    0.7908 N.am      7 UNK        -0.4739 
     45 CA         29.1315   32.5284    0.3342 C.3       7 UNK         0.0276 
     46 CB         29.9856   31.6364   -0.5834 C.3       7 UNK        -0.1927 
     47 C          29.9368   33.1119    1.5158 C.2       7 UNK         0.5013 
     48 O          31.1356   33.3521    1.3711 O.2       7 UNK        -0.5193 
     49 N          29.2649   33.3250    2.6592 N.am      8 UNK        -0.4253 
     50 CA         29.7861   33.8199    3.9385 C.3       8 UNK         0.0242 
     51 CB         30.3133   35.2655    3.8066 C.3       8 UNK        -0.2000 
     52 C          30.8042   32.8513    4.5680 C.2       8 UNK         0.4948 
     53 O          31.8529   33.2873    5.0461 O.2       8 UNK        -0.5275 
     54 N          30.4570   31.5544    4.5517 N.am      9 UNK        -0.4246 
     55 CA         31.2503   30.4104    5.0169 C.3       9 UNK         0.0261 
     56 CB         31.4105   30.4297    6.5511 C.3       9 UNK        -0.1959 
     57 C          32.5896   30.3019    4.2684 C.2       9 UNK         0.5033 
     58 O          33.6575   30.4186    4.8750 O.2       9 UNK        -0.5390 
     59 N          32.5045   30.0833    2.9495 N.am      10 UNK        -0.4215 
     60 CA         33.6393   29.9848    2.0234 C.3       10 UNK         0.0240 
     61 CB         33.1359   30.2202    0.5888 C.3       10 UNK        -0.1982 
     62 C          34.4254   28.6641    2.1628 C.2       10 UNK         0.4970 
     63 O          34.5516   27.9122    1.1951 O.2       10 UNK        -0.4916 
     64 N          34.9243   28.3977    3.3737 N.am      11 UNK        -0.4279 
     65 CA         35.7165   27.2110    3.7262 C.3       11 UNK         0.1003 
     66 C          37.2192   27.3165    3.3301 C.2       11 UNK         0.5709 
     67 N          37.7179   28.4657    2.8886 N.am      11 UNK        -0.7358 
     68 O          37.9460   26.3292    3.4138 O.2       11 UNK        -0.4999 
     69 C69        35.5601   26.8505    5.2305 C.3       12 UNK        -0.0954 
     70 S70        33.8873   26.4421    5.8662 S.3       12 UNK        -0.2268 
     71 C71        32.8070   26.2650    4.4118 C.3       12 UNK         0.0203 
     72 H72        30.8203   17.1107    0.1687 H         1 UNK         0.0888 
     73 H73        29.5814   17.6908    1.2835 H         1 UNK         0.0888 
     74 H74        29.1390   17.2244   -0.3599 H         1 UNK         0.0888 
     75 H75        29.5925   19.9208    1.5307 H         1 UNK         0.3017 
     76 H76        30.9918   21.6759   -0.2727 H         1 UNK         0.0873 
     77 H77        31.1439   22.2475    2.0220 H         1 UNK         0.0745 
     78 H78        30.1515   23.4832    1.3178 H         1 UNK         0.0745 
     79 H79        29.2340   21.7008    5.1582 H         1 UNK         0.0705 
     80 H80        30.7432   21.6355    4.2867 H         1 UNK         0.0705 
     81 H81        32.0612   23.6862    3.9665 H         1 UNK         0.1334 
     82 H82        30.6406   27.3678    5.6471 H         1 UNK         0.1417 
     83 H83        28.1139   23.9030    5.6176 H         1 UNK         0.1562 
     84 H84        28.4510   27.5343    6.5949 H         1 UNK         0.0748 
     85 H85        27.9151   26.0519    7.3435 H         1 UNK         0.0748 
     86 H86        26.2409   28.8266    5.8348 H         1 UNK         0.0940 
     87 H87        25.4605   28.3032    4.3723 H         1 UNK         0.0940 
     88 H88        28.3630   29.1548    4.7727 H         1 UNK         0.0703 
     89 H89        27.6484   27.1334    2.9592 H         1 UNK         0.3081 
     90 H90        29.5163   27.9481    0.1684 H         1 UNK         0.0719 
     91 H91        30.5889   25.8843    2.1541 H         1 UNK         0.0809 
     92 H92        31.0028   26.0185    0.4466 H         1 UNK         0.0809 
     93 H93        31.5070   27.2666    1.5700 H         1 UNK         0.0809 
     94 H94        28.5865   25.4062    0.7589 H         1 UNK         0.2990 
     95 H95        25.8863   24.9721    0.9481 H         1 UNK         0.0690 
     96 H96        24.2475   25.0457   -0.9452 H         1 UNK         0.0788 
     97 H97        25.0699   26.4593   -1.6049 H         1 UNK         0.0788 
     98 H98        24.2684   26.5524   -0.0446 H         1 UNK         0.0788 
     99 H99        26.9212   23.5312   -0.3986 H         1 UNK         0.2993 
    100 H100       27.4912   22.6965   -2.7787 H         1 UNK         0.0949 
    101 H101       29.4668   22.8869   -4.2776 H         1 UNK         0.0767 
    102 H102       28.3041   24.1582   -4.6102 H         1 UNK         0.0767 
    103 H103       29.7669   24.5286   -3.7065 H         1 UNK         0.0767 
    104 H104       30.1671   23.1956   -1.6818 H         1 UNK         0.3013 
    105 H105       26.2478   29.2340    1.8977 H         1 UNK         0.3121 
    106 H106       25.1432   31.8444    2.3532 H         1 UNK         0.0774 
    107 H107       25.2919   30.1470   -0.1987 H         1 UNK         0.0815 
    108 H108       24.2527   31.5433    0.0465 H         1 UNK         0.0815 
    109 H109       23.9978   30.0894    0.9978 H         1 UNK         0.0815 
    110 H110       28.1726   30.7948    1.0651 H         1 UNK         0.2987 
    111 H111       28.7867   33.3796   -0.2571 H         1 UNK         0.0949 
    112 H112       30.3459   30.7534   -0.0567 H         1 UNK         0.0806 
    113 H113       29.4126   31.2966   -1.4462 H         1 UNK         0.0806 
    114 H114       30.8535   32.1738   -0.9675 H         1 UNK         0.0806 
    115 H115       28.2897   33.0566    2.6717 H         1 UNK         0.3010 
    116 H116       28.9352   33.8448    4.6213 H         1 UNK         0.0829 
    117 H117       31.2062   35.3180    3.1831 H         1 UNK         0.0813 
    118 H118       29.5613   35.9245    3.3729 H         1 UNK         0.0813 
    119 H119       30.5769   35.6740    4.7829 H         1 UNK         0.0813 
    120 H120       29.5714   31.3250    4.1175 H         1 UNK         0.3038 
    121 H121       30.6857   29.5148    4.7628 H         1 UNK         0.0769 
    122 H122       31.9411   29.5413    6.8966 H         1 UNK         0.0811 
    123 H123       31.9775   31.2970    6.8907 H         1 UNK         0.0811 
    124 H124       30.4420   30.4452    7.0507 H         1 UNK         0.0811 
    125 H125       31.5757   29.9639    2.5511 H         1 UNK         0.3204 
    126 H126       34.3374   30.7908    2.2589 H         1 UNK         0.0748 
    127 H127       33.9547   30.1704   -0.1302 H         1 UNK         0.0771 
    128 H128       32.3944   29.4767    0.2939 H         1 UNK         0.0771 
    129 H129       32.6882   31.2086    0.4911 H         1 UNK         0.0771 
    130 H130       34.7390   29.0646    4.1191 H         1 UNK         0.2980 
    131 H131       35.3459   26.3686    3.1421 H         1 UNK         0.0545 
    132 H132       38.6912   28.5149    2.6314 H         1 UNK         0.3459 
    133 H133       37.1342   29.2831    2.8178 H         1 UNK         0.3459 
    134 H134       36.1852   25.9877    5.4684 H         1 UNK         0.0616 
    135 H135       35.9461   27.6671    5.8433 H         1 UNK         0.0616 
    136 H136       33.3072   25.6822    3.6388 H         1 UNK         0.0634 
    137 H137       32.5942   27.2448    3.9874 H         1 UNK         0.0634 
@<TRIPOS>BOND
     1    1    2 1    
     2    1   72 1    
     3    1   73 1    
     4    1   74 1    
     5    2    3 2    
     6    2    4 am   BACKBONE|DICT|INTERRES
     7    4    5 1    
     8    4   75 1    
     9    5    6 1    
    10    5   35 1    
    11    5   76 1    
    12    6    7 1    
    13    6   77 1    
    14    6   78 1    
    15    7    8 1    
    16    8    9 1    
    17    8   79 1    
    18    8   80 1    
    19    9   10 ar   
    20    9   14 ar   
    21   10   11 ar   
    22   10   81 1    
    23   11   12 ar   
    24   11   71 1    
    25   12   13 ar   
    26   12   82 1    
    27   13   14 ar   
    28   13   15 1    
    29   14   83 1    
    30   15   16 1    
    31   15   84 1    
    32   15   85 1    
    33   16   17 1    
    34   17   18 1    
    35   17   86 1    
    36   17   87 1    
    37   18   19 1    
    38   18   37 1    
    39   18   88 1    
    40   19   20 am   BACKBONE|DICT|INTERRES
    41   19   89 1    
    42   20   21 2    
    43   20   22 1    
    44   22   23 1    
    45   22   24 1    
    46   22   90 1    
    47   23   91 1    
    48   23   92 1    
    49   23   93 1    
    50   24   25 am   BACKBONE|DICT|INTERRES
    51   24   94 1    
    52   25   26 2    
    53   25   27 1    
    54   27   28 1    
    55   27   29 1    
    56   27   95 1    
    57   28   96 1    
    58   28   97 1    
    59   28   98 1    
    60   29   30 am   BACKBONE|DICT|INTERRES
    61   29   99 1    
    62   30   31 2    
    63   30   32 1    
    64   32   33 1    
    65   32   34 1    
    66   32  100 1    
    67   33  101 1    
    68   33  102 1    
    69   33  103 1    
    70   34   35 am   BACKBONE|DICT|INTERRES
    71   34  104 1    
    72   35   36 2    
    73   37   38 2    
    74   37   39 am   BACKBONE|DICT|INTERRES
    75   39   40 1    
    76   39  105 1    
    77   40   41 1    
    78   40   42 1    
    79   40  106 1    
    80   41  107 1    
    81   41  108 1    
    82   41  109 1    
    83   42   43 2    
    84   42   44 am   BACKBONE|DICT|INTERRES
    85   44   45 1    
    86   44  110 1    
    87   45   46 1    
    88   45   47 1    
    89   45  111 1    
    90   46  112 1    
    91   46  113 1    
    92   46  114 1    
    93   47   48 2    
    94   47   49 am   BACKBONE|DICT|INTERRES
    95   49   50 1    
    96   49  115 1    
    97   50   51 1    
    98   50   52 1    
    99   50  116 1    
   100   51  117 1    
   101   51  118 1    
   102   51  119 1    
   103   52   53 2    
   104   52   54 am   BACKBONE|DICT|INTERRES
   105   54   55 1    
   106   54  120 1    
   107   55   56 1    
   108   55   57 1    
   109   55  121 1    
   110   56  122 1    
   111   56  123 1    
   112   56  124 1    
   113   57   58 2    
   114   57   59 am   BACKBONE|DICT|INTERRES
   115   59   60 1    
   116   59  125 1    
   117   60   61 1    
   118   60   62 1    
   119   60  126 1    
   120   61  127 1    
   121   61  128 1    
   122   61  129 1    
   123   62   63 2    
   124   62   64 am   BACKBONE|DICT|INTERRES
   125   64   65 1    
   126   64  130 1    
   127   65   66 1    
   128   65   69 1    
   129   65  131 1    
   130   66   67 am   BACKBONE|DICT|INTERRES
   131   66   68 2    
   132   67  132 1    
   133   67  133 1    
   134   69   70 1    
   135   69  134 1    
   136   69  135 1    
   137   70   71 1    
   138   71  136 1    
   139   71  137 1    
@<TRIPOS>SUBSTRUCTURE
     1 UNK         1 GROUP             0       ****    0 ROOT    
