@<TRIPOS>MOLECULE
3R136
137   139    1
SMALL
USER_CHARGES


@<TRIPOS>ATOM
      1 CA         29.2645   23.6465    3.4174 C.3       0 UNK        -0.1979 
      2 C          28.8994   22.6848    2.2990 C.2       0 UNK         0.4864 
      3 O          27.8714   22.0116    2.3824 O.2       0 UNK        -0.5359 
      4 N          29.7224   22.6202    1.2420 N.am      1 UNK        -0.4318 
      5 CA         29.5515   21.6973    0.1080 C.3       1 UNK         0.0824 
      6 C6         30.7948   21.6522   -0.8144 C.3       12 UNK        -0.0944 
      7 S7         32.2877   21.0805    0.0704 S.3       12 UNK        -0.2672 
      8 C8         33.4280   22.4899   -0.1111 C.3       12 UNK         0.0333 
      9 C9         32.9449   23.7146    0.6507 C.ar      12 UNK        -0.0807 
     10 C10        33.0838   23.7805    2.0411 C.ar      12 UNK        -0.0894 
     11 C11        32.6175   24.8938    2.7467 C.ar      12 UNK        -0.0804 
     12 C12        32.0119   25.9439    2.0505 C.ar      12 UNK        -0.0824 
     13 C13        31.8844   25.8961    0.6600 C.ar      12 UNK        -0.0762 
     14 C14        32.3577   24.7815   -0.0354 C.ar      12 UNK        -0.0782 
     15 C15        31.2396   27.0472   -0.0960 C.3       12 UNK         0.0230 
     16 S16        29.5474   26.6439   -0.6206 S.3       12 UNK        -0.2608 
     17 C17        28.6480   26.6171    0.9650 C.3       12 UNK        -0.0989 
     18 CA         27.7124   27.8414    1.1392 C.3       5 UNK         0.0716 
     19 N          26.5433   27.4745    1.9340 N.am      5 UNK        -0.4135 
     20 C          25.3283   28.0274    1.8726 C.2       4 UNK         0.5031 
     21 O          25.0685   29.0163    1.1830 O.2       4 UNK        -0.5229 
     22 CA         24.2272   27.3344    2.7051 C.3       4 UNK         0.0329 
     23 CB         22.8504   28.0037    2.5385 C.3       4 UNK        -0.2001 
     24 N          24.1068   25.9094    2.3707 N.am      4 UNK        -0.4303 
     25 C          24.9620   24.9455    2.7389 C.2       3 UNK         0.5044 
     26 O          25.9400   25.1494    3.4597 O.2       3 UNK        -0.5152 
     27 CA         24.7396   23.5357    2.1688 C.3       3 UNK         0.0319 
     28 CB         23.2544   23.1788    1.9322 C.3       3 UNK        -0.2001 
     29 N          25.5570   23.3219    0.9680 N.am      3 UNK        -0.4354 
     30 C          25.4507   23.9483   -0.2166 C.2       2 UNK         0.4964 
     31 O          24.5732   24.7746   -0.4708 O.2       2 UNK        -0.5047 
     32 CA         26.4979   23.6124   -1.2981 C.3       2 UNK         0.0288 
     33 CB         26.7394   24.7978   -2.2518 C.3       2 UNK        -0.2113 
     34 N          27.7753   23.2040   -0.7056 N.am      2 UNK        -0.4145 
     35 C          28.2654   21.9560   -0.7092 C.2       1 UNK         0.5006 
     36 O          27.7298   21.0139   -1.2955 O.2       1 UNK        -0.5103 
     37 C          28.4106   29.0818    1.7355 C.2       5 UNK         0.5055 
     38 O          29.5537   29.0032    2.1875 O.2       5 UNK        -0.5220 
     39 N          27.7027   30.2187    1.7442 N.am      6 UNK        -0.4450 
     40 CA         28.1695   31.4979    2.2929 C.3       6 UNK         0.0367 
     41 CB         27.0114   32.5076    2.2720 C.3       6 UNK        -0.1929 
     42 C          29.4035   32.0821    1.5787 C.2       6 UNK         0.5070 
     43 O          30.1406   32.8563    2.1888 O.2       6 UNK        -0.5237 
     44 N          29.6224   31.6861    0.3162 N.am      7 UNK        -0.4739 
     45 CA         30.7158   32.1281   -0.5564 C.3       7 UNK         0.0276 
     46 CB         30.5463   31.4696   -1.9353 C.3       7 UNK        -0.1927 
     47 C          32.1343   31.8671   -0.0147 C.2       7 UNK         0.5013 
     48 O          33.0563   32.5910   -0.3925 O.2       7 UNK        -0.5193 
     49 N          32.2912   30.8607    0.8580 N.am      8 UNK        -0.4253 
     50 CA         33.5588   30.5523    1.5276 C.3       8 UNK         0.0242 
     51 CB         33.5536   29.0875    1.9903 C.3       8 UNK        -0.2000 
     52 C          33.8755   31.4853    2.7101 C.2       8 UNK         0.4948 
     53 O          35.0160   31.4749    3.1762 O.2       8 UNK        -0.5275 
     54 N          32.8801   32.2442    3.1984 N.am      9 UNK        -0.4246 
     55 CA         32.9073   33.1909    4.3244 C.3       9 UNK         0.0261 
     56 CB         33.8727   34.3619    4.0553 C.3       9 UNK        -0.1959 
     57 C          33.1744   32.5513    5.7001 C.2       9 UNK         0.5033 
     58 O          32.3980   32.7777    6.6285 O.2       9 UNK        -0.5390 
     59 N          34.2492   31.7614    5.8092 N.am      10 UNK        -0.4215 
     60 CA         34.6546   31.0352    7.0155 C.3       10 UNK         0.0240 
     61 CB         36.1031   30.5475    6.8501 C.3       10 UNK        -0.1982 
     62 C          33.7259   29.8558    7.3513 C.2       10 UNK         0.4970 
     63 O          33.5396   29.5551    8.5311 O.2       10 UNK        -0.4916 
     64 N          33.1644   29.2199    6.3173 N.am      11 UNK        -0.4279 
     65 CA         32.2270   28.0921    6.4182 C.3       11 UNK         0.1003 
     66 C          31.0624   28.1693    5.3881 C.2       11 UNK         0.5709 
     67 N          30.8908   29.2713    4.6676 N.am      11 UNK        -0.7358 
     68 O          30.3008   27.2178    5.2390 O.2       11 UNK        -0.4999 
     69 C69        32.9733   26.7265    6.4276 C.3       12 UNK        -0.0954 
     70 S70        33.7809   26.3073    4.8399 S.3       12 UNK        -0.2268 
     71 C71        32.7124   24.9471    4.2640 C.3       12 UNK         0.0203 
     72 H72        29.7887   24.5196    3.0362 H         1 UNK         0.0888 
     73 H73        29.9020   23.1499    4.1480 H         1 UNK         0.0888 
     74 H74        28.3681   23.9956    3.9291 H         1 UNK         0.0888 
     75 H75        30.5704   23.1722    1.2305 H         1 UNK         0.3017 
     76 H76        29.4314   20.7001    0.5379 H         1 UNK         0.0873 
     77 H77        30.9721   22.6254   -1.2734 H         1 UNK         0.0745 
     78 H78        30.6291   20.9582   -1.6409 H         1 UNK         0.0745 
     79 H79        34.4107   22.1976    0.2619 H         1 UNK         0.0705 
     80 H80        33.5598   22.7150   -1.1706 H         1 UNK         0.0705 
     81 H81        33.5386   22.9552    2.5723 H         1 UNK         0.1334 
     82 H82        31.6324   26.7961    2.5981 H         1 UNK         0.1417 
     83 H83        32.2552   24.7432   -1.1117 H         1 UNK         0.1562 
     84 H84        31.8365   27.2801   -0.9789 H         1 UNK         0.0748 
     85 H85        31.2263   27.9544    0.5067 H         1 UNK         0.0748 
     86 H86        29.3273   26.5045    1.8094 H         1 UNK         0.0940 
     87 H87        28.0577   25.7004    0.9553 H         1 UNK         0.0940 
     88 H88        27.3487   28.1287    0.1497 H         1 UNK         0.0703 
     89 H89        26.6495   26.6803    2.5594 H         1 UNK         0.3081 
     90 H90        24.5150   27.4224    3.7549 H         1 UNK         0.0719 
     91 H91        22.5005   27.9553    1.5065 H         1 UNK         0.0809 
     92 H92        22.0994   27.5298    3.1707 H         1 UNK         0.0809 
     93 H93        22.8906   29.0567    2.8206 H         1 UNK         0.0809 
     94 H94        23.3905   25.6645    1.7012 H         1 UNK         0.2990 
     95 H95        25.1204   22.8415    2.9198 H         1 UNK         0.0690 
     96 H96        23.1482   22.1328    1.6447 H         1 UNK         0.0788 
     97 H97        22.7893   23.7804    1.1516 H         1 UNK         0.0788 
     98 H98        22.6716   23.3207    2.8434 H         1 UNK         0.0788 
     99 H99        26.3409   22.6929    1.1092 H         1 UNK         0.2993 
    100 H100       26.0780   22.7950   -1.8879 H         1 UNK         0.0949 
    101 H101       25.8433   25.0191   -2.8329 H         1 UNK         0.0767 
    102 H102       27.0028   25.7054   -1.7091 H         1 UNK         0.0767 
    103 H103       27.5390   24.5842   -2.9613 H         1 UNK         0.0767 
    104 H104       28.2905   23.9148   -0.2070 H         1 UNK         0.3013 
    105 H105       26.7494   30.1796    1.3960 H         1 UNK         0.3121 
    106 H106       28.4538   31.3253    3.3332 H         1 UNK         0.0774 
    107 H107       26.1618   32.1499    2.8541 H         1 UNK         0.0815 
    108 H108       26.6652   32.7034    1.2564 H         1 UNK         0.0815 
    109 H109       27.3177   33.4623    2.7022 H         1 UNK         0.0815 
    110 H110       28.9585   31.0423   -0.0884 H         1 UNK         0.2987 
    111 H111       30.6165   33.2090   -0.6764 H         1 UNK         0.0949 
    112 H112       30.5980   30.3816   -1.8718 H         1 UNK         0.0806 
    113 H113       29.5915   31.7357   -2.3893 H         1 UNK         0.0806 
    114 H114       31.3293   31.7933   -2.6227 H         1 UNK         0.0806 
    115 H115       31.4778   30.3228    1.1280 H         1 UNK         0.3010 
    116 H116       34.3726   30.6698    0.8085 H         1 UNK         0.0829 
    117 H117       33.5279   28.4081    1.1394 H         1 UNK         0.0813 
    118 H118       34.4534   28.8446    2.5577 H         1 UNK         0.0813 
    119 H119       32.6986   28.8695    2.6281 H         1 UNK         0.0813 
    120 H120       31.9808   32.1974    2.7280 H         1 UNK         0.3038 
    121 H121       31.9004   33.6098    4.3691 H         1 UNK         0.0769 
    122 H122       34.9106   34.0344    3.9900 H         1 UNK         0.0811 
    123 H123       33.8172   35.1025    4.8541 H         1 UNK         0.0811 
    124 H124       33.6242   34.8712    3.1241 H         1 UNK         0.0811 
    125 H125       34.8042   31.6253    4.9643 H         1 UNK         0.3204 
    126 H126       34.6213   31.7312    7.8564 H         1 UNK         0.0748 
    127 H127       36.7862   31.3821    6.6908 H         1 UNK         0.0771 
    128 H128       36.4418   30.0184    7.7421 H         1 UNK         0.0771 
    129 H129       36.2058   29.8643    6.0058 H         1 UNK         0.0771 
    130 H130       33.4025   29.5061    5.3803 H         1 UNK         0.2980 
    131 H131       31.7154   28.1759    7.3785 H         1 UNK         0.0545 
    132 H132       30.1985   29.2528    3.9248 H         1 UNK         0.3459 
    133 H133       31.4236   30.1039    4.8445 H         1 UNK         0.3459 
    134 H134       33.7439   26.7360    7.1997 H         1 UNK         0.0616 
    135 H135       32.2897   25.9279    6.7194 H         1 UNK         0.0616 
    136 H136       31.7045   25.0646    4.6610 H         1 UNK         0.0634 
    137 H137       33.0919   24.0076    4.6679 H         1 UNK         0.0634 
@<TRIPOS>BOND
     1    1    2 1    
     2    1   72 1    
     3    1   73 1    
     4    1   74 1    
     5    2    3 2    
     6    2    4 am   BACKBONE|DICT|INTERRES
     7    4    5 1    
     8    4   75 1    
     9    5    6 1    
    10    5   35 1    
    11    5   76 1    
    12    6    7 1    
    13    6   77 1    
    14    6   78 1    
    15    7    8 1    
    16    8    9 1    
    17    8   79 1    
    18    8   80 1    
    19    9   10 ar   
    20    9   14 ar   
    21   10   11 ar   
    22   10   81 1    
    23   11   12 ar   
    24   11   71 1    
    25   12   13 ar   
    26   12   82 1    
    27   13   14 ar   
    28   13   15 1    
    29   14   83 1    
    30   15   16 1    
    31   15   84 1    
    32   15   85 1    
    33   16   17 1    
    34   17   18 1    
    35   17   86 1    
    36   17   87 1    
    37   18   19 1    
    38   18   37 1    
    39   18   88 1    
    40   19   20 am   BACKBONE|DICT|INTERRES
    41   19   89 1    
    42   20   21 2    
    43   20   22 1    
    44   22   23 1    
    45   22   24 1    
    46   22   90 1    
    47   23   91 1    
    48   23   92 1    
    49   23   93 1    
    50   24   25 am   BACKBONE|DICT|INTERRES
    51   24   94 1    
    52   25   26 2    
    53   25   27 1    
    54   27   28 1    
    55   27   29 1    
    56   27   95 1    
    57   28   96 1    
    58   28   97 1    
    59   28   98 1    
    60   29   30 am   BACKBONE|DICT|INTERRES
    61   29   99 1    
    62   30   31 2    
    63   30   32 1    
    64   32   33 1    
    65   32   34 1    
    66   32  100 1    
    67   33  101 1    
    68   33  102 1    
    69   33  103 1    
    70   34   35 am   BACKBONE|DICT|INTERRES
    71   34  104 1    
    72   35   36 2    
    73   37   38 2    
    74   37   39 am   BACKBONE|DICT|INTERRES
    75   39   40 1    
    76   39  105 1    
    77   40   41 1    
    78   40   42 1    
    79   40  106 1    
    80   41  107 1    
    81   41  108 1    
    82   41  109 1    
    83   42   43 2    
    84   42   44 am   BACKBONE|DICT|INTERRES
    85   44   45 1    
    86   44  110 1    
    87   45   46 1    
    88   45   47 1    
    89   45  111 1    
    90   46  112 1    
    91   46  113 1    
    92   46  114 1    
    93   47   48 2    
    94   47   49 am   BACKBONE|DICT|INTERRES
    95   49   50 1    
    96   49  115 1    
    97   50   51 1    
    98   50   52 1    
    99   50  116 1    
   100   51  117 1    
   101   51  118 1    
   102   51  119 1    
   103   52   53 2    
   104   52   54 am   BACKBONE|DICT|INTERRES
   105   54   55 1    
   106   54  120 1    
   107   55   56 1    
   108   55   57 1    
   109   55  121 1    
   110   56  122 1    
   111   56  123 1    
   112   56  124 1    
   113   57   58 2    
   114   57   59 am   BACKBONE|DICT|INTERRES
   115   59   60 1    
   116   59  125 1    
   117   60   61 1    
   118   60   62 1    
   119   60  126 1    
   120   61  127 1    
   121   61  128 1    
   122   61  129 1    
   123   62   63 2    
   124   62   64 am   BACKBONE|DICT|INTERRES
   125   64   65 1    
   126   64  130 1    
   127   65   66 1    
   128   65   69 1    
   129   65  131 1    
   130   66   67 am   BACKBONE|DICT|INTERRES
   131   66   68 2    
   132   67  132 1    
   133   67  133 1    
   134   69   70 1    
   135   69  134 1    
   136   69  135 1    
   137   70   71 1    
   138   71  136 1    
   139   71  137 1    
@<TRIPOS>SUBSTRUCTURE
     1 UNK         1 GROUP             0       ****    0 ROOT    
