@<TRIPOS>MOLECULE
3R136
137   139    1
SMALL
USER_CHARGES


@<TRIPOS>ATOM
      1 CA         30.0607   19.0333   -0.8506 C.3       0 UNK        -0.1979 
      2 C          30.6063   20.4355   -0.6225 C.2       0 UNK         0.4864 
      3 O          31.7614   20.7035   -0.9579 O.2       0 UNK        -0.5359 
      4 N          29.7880   21.3273   -0.0484 N.am      1 UNK        -0.4318 
      5 CA         30.1198   22.7369    0.1824 C.3       1 UNK         0.0824 
      6 C6         29.2239   23.3477    1.2901 C.3       12 UNK        -0.0944 
      7 S7         30.0349   24.7278    2.1724 S.3       12 UNK        -0.2672 
      8 C8         30.0579   24.0710    3.8716 C.3       12 UNK         0.0333 
      9 C9         30.6050   25.0655    4.8885 C.ar      12 UNK        -0.0807 
     10 C10        31.5879   24.6675    5.8010 C.ar      12 UNK        -0.0894 
     11 C11        32.0415   25.5476    6.7889 C.ar      12 UNK        -0.0804 
     12 C12        31.5107   26.8396    6.8534 C.ar      12 UNK        -0.0824 
     13 C13        30.5260   27.2502    5.9495 C.ar      12 UNK        -0.0762 
     14 C14        30.0803   26.3597    4.9687 C.ar      12 UNK        -0.0782 
     15 C15        29.9562   28.6593    6.0300 C.3       12 UNK         0.0230 
     16 S16        28.3875   28.7396    6.9589 S.3       12 UNK        -0.2608 
     17 C17        27.1345   28.0569    5.8090 C.3       12 UNK        -0.0989 
     18 CA         27.0012   28.8062    4.4577 C.3       5 UNK         0.0716 
     19 N          26.0932   28.1257    3.5321 N.am      5 UNK        -0.4135 
     20 C          25.9745   28.4615    2.2412 C.2       4 UNK         0.5031 
     21 O          26.6144   29.3762    1.7131 O.2       4 UNK        -0.5229 
     22 CA         24.9659   27.6638    1.3958 C.3       4 UNK         0.0329 
     23 CB         23.6105   28.3873    1.3562 C.3       4 UNK        -0.2001 
     24 N          25.4659   27.4991    0.0286 N.am      4 UNK        -0.4303 
     25 C          26.5555   26.7827   -0.2757 C.2       3 UNK         0.5044 
     26 O          27.1077   26.0199    0.5216 O.2       3 UNK        -0.5152 
     27 CA         27.1571   26.9762   -1.6768 C.3       3 UNK         0.0319 
     28 CB         27.0994   28.4521   -2.1386 C.3       3 UNK        -0.2001 
     29 N          28.5320   26.4847   -1.6116 N.am      3 UNK        -0.4354 
     30 C          29.3765   26.2715   -2.6260 C.2       2 UNK         0.4964 
     31 O          29.1203   26.5246   -3.8035 O.2       2 UNK        -0.5047 
     32 CA         30.7427   25.6547   -2.2672 C.3       2 UNK         0.0288 
     33 CB         31.7720   26.7554   -1.9592 C.3       2 UNK        -0.2113 
     34 N          30.6960   24.7207   -1.1372 N.am      2 UNK        -0.4145 
     35 C          30.0435   23.5499   -1.1298 C.2       1 UNK         0.5006 
     36 O          29.3934   23.1231   -2.0888 O.2       1 UNK        -0.5103 
     37 C          26.5911   30.2856    4.6198 C.2       5 UNK         0.5055 
     38 O          25.4379   30.5576    4.9600 O.2       5 UNK        -0.5220 
     39 N          27.5439   31.1823    4.3320 N.am      6 UNK        -0.4450 
     40 CA         27.4634   32.6481    4.2860 C.3       6 UNK         0.0367 
     41 CB         26.6377   33.2659    5.4339 C.3       6 UNK        -0.1929 
     42 C          27.0636   33.2019    2.9069 C.2       6 UNK         0.5070 
     43 O          27.2696   34.3941    2.6761 O.2       6 UNK        -0.5237 
     44 N          26.5754   32.3525    1.9892 N.am      7 UNK        -0.4739 
     45 CA         26.5676   32.6501    0.5504 C.3       7 UNK         0.0276 
     46 CB         25.4499   31.8672   -0.1592 C.3       7 UNK        -0.1927 
     47 C          27.9481   32.3232   -0.0465 C.2       7 UNK         0.5013 
     48 O          28.4592   33.0863   -0.8665 O.2       7 UNK        -0.5193 
     49 N          28.5449   31.2286    0.4377 N.am      8 UNK        -0.4253 
     50 CA         29.9514   30.8680    0.3055 C.3       8 UNK         0.0242 
     51 CB         30.1612   30.0025   -0.9521 C.3       8 UNK        -0.2000 
     52 C          30.3653   30.1464    1.5994 C.2       8 UNK         0.4948 
     53 O          29.6140   30.1633    2.5804 O.2       8 UNK        -0.5275 
     54 N          31.5441   29.5177    1.5906 N.am      9 UNK        -0.4246 
     55 CA         32.0235   28.6534    2.6625 C.3       9 UNK         0.0261 
     56 CB         32.5795   29.4910    3.8319 C.3       9 UNK        -0.1959 
     57 C          33.1144   27.7448    2.0984 C.2       9 UNK         0.5033 
     58 O          34.0200   28.2460    1.4289 O.2       9 UNK        -0.5390 
     59 N          33.0537   26.4470    2.4231 N.am      10 UNK        -0.4215 
     60 CA         34.1533   25.5035    2.1872 C.3       10 UNK         0.0240 
     61 CB         33.6431   24.0606    2.3198 C.3       10 UNK        -0.1982 
     62 C          35.3292   25.7441    3.1496 C.2       10 UNK         0.4970 
     63 O          36.4795   25.5182    2.7739 O.2       10 UNK        -0.4916 
     64 N          35.0105   26.2136    4.3619 N.am      11 UNK        -0.4279 
     65 CA         35.9644   26.5823    5.4158 C.3       11 UNK         0.1003 
     66 C          36.6342   27.9749    5.2168 C.2       11 UNK         0.5709 
     67 N          36.3081   28.7378    4.1790 N.am      11 UNK        -0.7358 
     68 O          37.4791   28.3686    6.0174 O.2       11 UNK        -0.4999 
     69 C69        35.3187   26.4537    6.8210 C.3       12 UNK        -0.0954 
     70 S70        34.7035   24.7651    7.1430 S.3       12 UNK        -0.2268 
     71 C71        33.0484   25.0789    7.8326 C.3       12 UNK         0.0203 
     72 H72        29.0360   18.9310   -0.4934 H         1 UNK         0.0888 
     73 H73        30.0743   18.7943   -1.9136 H         1 UNK         0.0888 
     74 H74        30.6761   18.3014   -0.3282 H         1 UNK         0.0888 
     75 H75        28.8390   21.0587    0.1687 H         1 UNK         0.3017 
     76 H76        31.1558   22.7593    0.5242 H         1 UNK         0.0873 
     77 H77        28.2662   23.6855    0.8905 H         1 UNK         0.0745 
     78 H78        28.9706   22.5807    2.0238 H         1 UNK         0.0745 
     79 H79        29.0421   23.8025    4.1651 H         1 UNK         0.0705 
     80 H80        30.6410   23.1486    3.8810 H         1 UNK         0.0705 
     81 H81        31.9836   23.6613    5.7657 H         1 UNK         0.1334 
     82 H82        31.8487   27.5212    7.6222 H         1 UNK         0.1417 
     83 H83        29.3139   26.6677    4.2707 H         1 UNK         0.1562 
     84 H84        29.8387   29.0774    5.0329 H         1 UNK         0.0748 
     85 H85        30.6731   29.3129    6.5294 H         1 UNK         0.0748 
     86 H86        26.1744   28.0562    6.3287 H         1 UNK         0.0940 
     87 H87        27.3715   27.0066    5.6365 H         1 UNK         0.0940 
     88 H88        27.9720   28.7688    3.9665 H         1 UNK         0.0703 
     89 H89        25.5090   27.3965    3.9135 H         1 UNK         0.3081 
     90 H90        24.8291   26.6745    1.8379 H         1 UNK         0.0719 
     91 H91        23.6967   29.3851    0.9238 H         1 UNK         0.0809 
     92 H92        22.8790   27.8293    0.7714 H         1 UNK         0.0809 
     93 H93        23.2005   28.5038    2.3604 H         1 UNK         0.0809 
     94 H94        25.0873   28.1214   -0.6692 H         1 UNK         0.2990 
     95 H95        26.6017   26.3500   -2.3772 H         1 UNK         0.0690 
     96 H96        26.0796   28.7441   -2.3900 H         1 UNK         0.0788 
     97 H97        27.7010   28.6311   -3.0291 H         1 UNK         0.0788 
     98 H98        27.4465   29.1327   -1.3610 H         1 UNK         0.0788 
     99 H99        28.7964   26.1868   -0.6792 H         1 UNK         0.2993 
    100 H100       31.0851   25.1001   -3.1437 H         1 UNK         0.0949 
    101 H101       32.7747   26.3407   -1.8530 H         1 UNK         0.0767 
    102 H102       31.8113   27.4929   -2.7624 H         1 UNK         0.0767 
    103 H103       31.5326   27.2861   -1.0373 H         1 UNK         0.0767 
    104 H104       31.1765   25.0049   -0.2955 H         1 UNK         0.3013 
    105 H105       28.4112   30.8102    3.9473 H         1 UNK         0.3121 
    106 H106       28.4935   32.9755    4.4359 H         1 UNK         0.0774 
    107 H107       26.7902   34.3448    5.4797 H         1 UNK         0.0815 
    108 H108       25.5680   33.1032    5.3014 H         1 UNK         0.0815 
    109 H109       26.9277   32.8560    6.4013 H         1 UNK         0.0815 
    110 H110       26.4483   31.3791    2.2442 H         1 UNK         0.2987 
    111 H111       26.3758   33.7148    0.3986 H         1 UNK         0.0949 
    112 H112       25.6301   30.7931   -0.1566 H         1 UNK         0.0806 
    113 H113       24.4811   32.0473    0.3065 H         1 UNK         0.0806 
    114 H114       25.3708   32.1741   -1.2028 H         1 UNK         0.0806 
    115 H115       28.0355   30.6560    1.1072 H         1 UNK         0.3010 
    116 H116       30.5493   31.7784    0.2272 H         1 UNK         0.0829 
    117 H117       29.7059   30.4588   -1.8313 H         1 UNK         0.0813 
    118 H118       31.2208   29.8758   -1.1746 H         1 UNK         0.0813 
    119 H119       29.7298   29.0094   -0.8292 H         1 UNK         0.0813 
    120 H120       32.1367   29.5491    0.7708 H         1 UNK         0.3038 
    121 H121       31.1922   28.0395    3.0126 H         1 UNK         0.0769 
    122 H122       31.8324   30.1759    4.2310 H         1 UNK         0.0811 
    123 H123       33.4382   30.0892    3.5243 H         1 UNK         0.0811 
    124 H124       32.9052   28.8510    4.6529 H         1 UNK         0.0811 
    125 H125       32.2557   26.0995    2.9383 H         1 UNK         0.3204 
    126 H126       34.5224   25.6432    1.1686 H         1 UNK         0.0748 
    127 H127       34.4533   23.3445    2.1749 H         1 UNK         0.0771 
    128 H128       33.2105   23.8689    3.3023 H         1 UNK         0.0771 
    129 H129       32.8878   23.8426    1.5679 H         1 UNK         0.0771 
    130 H130       34.0380   26.3446    4.5916 H         1 UNK         0.2980 
    131 H131       36.7861   25.8648    5.3756 H         1 UNK         0.0545 
    132 H132       36.7599   29.6317    4.0689 H         1 UNK         0.3459 
    133 H133       35.6487   28.4183    3.4873 H         1 UNK         0.3459 
    134 H134       36.0435   26.6895    7.6023 H         1 UNK         0.0616 
    135 H135       34.5056   27.1730    6.9314 H         1 UNK         0.0616 
    136 H136       32.6816   24.1552    8.2823 H         1 UNK         0.0634 
    137 H137       33.1327   25.7988    8.6483 H         1 UNK         0.0634 
@<TRIPOS>BOND
     1    1    2 1    
     2    1   72 1    
     3    1   73 1    
     4    1   74 1    
     5    2    3 2    
     6    2    4 am   BACKBONE|DICT|INTERRES
     7    4    5 1    
     8    4   75 1    
     9    5    6 1    
    10    5   35 1    
    11    5   76 1    
    12    6    7 1    
    13    6   77 1    
    14    6   78 1    
    15    7    8 1    
    16    8    9 1    
    17    8   79 1    
    18    8   80 1    
    19    9   10 ar   
    20    9   14 ar   
    21   10   11 ar   
    22   10   81 1    
    23   11   12 ar   
    24   11   71 1    
    25   12   13 ar   
    26   12   82 1    
    27   13   14 ar   
    28   13   15 1    
    29   14   83 1    
    30   15   16 1    
    31   15   84 1    
    32   15   85 1    
    33   16   17 1    
    34   17   18 1    
    35   17   86 1    
    36   17   87 1    
    37   18   19 1    
    38   18   37 1    
    39   18   88 1    
    40   19   20 am   BACKBONE|DICT|INTERRES
    41   19   89 1    
    42   20   21 2    
    43   20   22 1    
    44   22   23 1    
    45   22   24 1    
    46   22   90 1    
    47   23   91 1    
    48   23   92 1    
    49   23   93 1    
    50   24   25 am   BACKBONE|DICT|INTERRES
    51   24   94 1    
    52   25   26 2    
    53   25   27 1    
    54   27   28 1    
    55   27   29 1    
    56   27   95 1    
    57   28   96 1    
    58   28   97 1    
    59   28   98 1    
    60   29   30 am   BACKBONE|DICT|INTERRES
    61   29   99 1    
    62   30   31 2    
    63   30   32 1    
    64   32   33 1    
    65   32   34 1    
    66   32  100 1    
    67   33  101 1    
    68   33  102 1    
    69   33  103 1    
    70   34   35 am   BACKBONE|DICT|INTERRES
    71   34  104 1    
    72   35   36 2    
    73   37   38 2    
    74   37   39 am   BACKBONE|DICT|INTERRES
    75   39   40 1    
    76   39  105 1    
    77   40   41 1    
    78   40   42 1    
    79   40  106 1    
    80   41  107 1    
    81   41  108 1    
    82   41  109 1    
    83   42   43 2    
    84   42   44 am   BACKBONE|DICT|INTERRES
    85   44   45 1    
    86   44  110 1    
    87   45   46 1    
    88   45   47 1    
    89   45  111 1    
    90   46  112 1    
    91   46  113 1    
    92   46  114 1    
    93   47   48 2    
    94   47   49 am   BACKBONE|DICT|INTERRES
    95   49   50 1    
    96   49  115 1    
    97   50   51 1    
    98   50   52 1    
    99   50  116 1    
   100   51  117 1    
   101   51  118 1    
   102   51  119 1    
   103   52   53 2    
   104   52   54 am   BACKBONE|DICT|INTERRES
   105   54   55 1    
   106   54  120 1    
   107   55   56 1    
   108   55   57 1    
   109   55  121 1    
   110   56  122 1    
   111   56  123 1    
   112   56  124 1    
   113   57   58 2    
   114   57   59 am   BACKBONE|DICT|INTERRES
   115   59   60 1    
   116   59  125 1    
   117   60   61 1    
   118   60   62 1    
   119   60  126 1    
   120   61  127 1    
   121   61  128 1    
   122   61  129 1    
   123   62   63 2    
   124   62   64 am   BACKBONE|DICT|INTERRES
   125   64   65 1    
   126   64  130 1    
   127   65   66 1    
   128   65   69 1    
   129   65  131 1    
   130   66   67 am   BACKBONE|DICT|INTERRES
   131   66   68 2    
   132   67  132 1    
   133   67  133 1    
   134   69   70 1    
   135   69  134 1    
   136   69  135 1    
   137   70   71 1    
   138   71  136 1    
   139   71  137 1    
@<TRIPOS>SUBSTRUCTURE
     1 UNK         1 GROUP             0       ****    0 ROOT    
