@<TRIPOS>MOLECULE
3R136
137   139    1
SMALL
USER_CHARGES


@<TRIPOS>ATOM
      1 CA         25.9504   21.3658   -1.5884 C.3       0 UNK        -0.1979 
      2 C          27.0415   22.3901   -1.3183 C.2       0 UNK         0.4864 
      3 O          26.7339   23.5666   -1.1181 O.2       0 UNK        -0.5359 
      4 N          28.3098   21.9536   -1.3142 N.am      1 UNK        -0.4318 
      5 CA         29.5115   22.7658   -1.0725 C.3       1 UNK         0.0824 
      6 C6         29.6068   23.2964    0.3878 C.3       12 UNK        -0.0944 
      7 S7         29.5928   21.9403    1.6100 S.3       12 UNK        -0.2672 
      8 C8         31.2996   21.9777    2.2460 C.3       12 UNK         0.0333 
      9 C9         31.5749   23.2368    3.0558 C.ar      12 UNK        -0.0807 
     10 C10        32.5230   24.1669    2.6207 C.ar      12 UNK        -0.0894 
     11 C11        32.7660   25.3308    3.3560 C.ar      12 UNK        -0.0804 
     12 C12        32.0323   25.5720    4.5241 C.ar      12 UNK        -0.0824 
     13 C13        31.1065   24.6321    4.9885 C.ar      12 UNK        -0.0762 
     14 C14        30.8875   23.4652    4.2507 C.ar      12 UNK        -0.0782 
     15 C15        30.3840   24.8376    6.3139 C.3       12 UNK         0.0230 
     16 S16        28.5715   24.8687    6.1216 S.3       12 UNK        -0.2608 
     17 C17        28.1977   26.6550    6.1230 C.3       12 UNK        -0.0989 
     18 CA         28.0907   27.2761    4.7082 C.3       5 UNK         0.0716 
     19 N          27.2125   26.4921    3.8243 N.am      5 UNK        -0.4135 
     20 C          26.9813   26.7259    2.5252 C.2       4 UNK         0.5031 
     21 O          27.4367   27.6999    1.9243 O.2       4 UNK        -0.5229 
     22 CA         26.0882   25.6958    1.8062 C.3       4 UNK         0.0329 
     23 CB         24.6699   25.6520    2.4146 C.3       4 UNK        -0.2001 
     24 N          26.0242   25.8761    0.3490 N.am      4 UNK        -0.4303 
     25 C          25.5038   26.8985   -0.3488 C.2       3 UNK         0.5044 
     26 O          24.9283   27.8661    0.1536 O.2       3 UNK        -0.5152 
     27 CA         25.6282   26.7845   -1.8812 C.3       3 UNK         0.0319 
     28 CB         25.1567   28.0453   -2.6392 C.3       3 UNK        -0.2001 
     29 N          26.9697   26.3596   -2.3049 N.am      3 UNK        -0.4354 
     30 C          28.1165   27.0551   -2.2423 C.2       2 UNK         0.4964 
     31 O          28.2088   28.2194   -1.8571 O.2       2 UNK        -0.5047 
     32 CA         29.3797   26.2837   -2.6537 C.3       2 UNK         0.0288 
     33 CB         30.6651   27.1338   -2.6112 C.3       2 UNK        -0.2113 
     34 N          29.5169   25.1353   -1.7616 N.am      2 UNK        -0.4145 
     35 C          29.6292   23.8613   -2.1564 C.2       1 UNK         0.5006 
     36 O          29.7802   23.5209   -3.3321 O.2       1 UNK        -0.5103 
     37 C          27.7005   28.7669    4.8297 C.2       5 UNK         0.5055 
     38 O          28.5547   29.5874    5.1650 O.2       5 UNK        -0.5220 
     39 N          26.4251   29.0928    4.5698 N.am      6 UNK        -0.4450 
     40 CA         25.8988   30.4589    4.5438 C.3       6 UNK         0.0367 
     41 CB         24.3655   30.4119    4.4447 C.3       6 UNK        -0.1929 
     42 C          26.4867   31.3096    3.4035 C.2       6 UNK         0.5070 
     43 O          26.6817   32.5107    3.5921 O.2       6 UNK        -0.5237 
     44 N          26.7625   30.6785    2.2544 N.am      7 UNK        -0.4739 
     45 CA         27.4315   31.3013    1.1124 C.3       7 UNK         0.0276 
     46 CB         26.7764   30.8178   -0.1878 C.3       7 UNK        -0.1927 
     47 C          28.9319   30.9794    1.1223 C.2       7 UNK         0.5013 
     48 O          29.7441   31.8722    0.8728 O.2       7 UNK        -0.5193 
     49 N          29.2862   29.7288    1.4496 N.am      8 UNK        -0.4253 
     50 CA         30.6566   29.2330    1.5765 C.3       8 UNK         0.0242 
     51 CB         30.6493   27.7011    1.4065 C.3       8 UNK        -0.2000 
     52 C          31.2975   29.6868    2.9033 C.2       8 UNK         0.4948 
     53 O          31.6675   28.8590    3.7352 O.2       8 UNK        -0.5275 
     54 N          31.4258   31.0073    3.0790 N.am      9 UNK        -0.4246 
     55 CA         32.0226   31.6405    4.2588 C.3       9 UNK         0.0261 
     56 CB         31.6010   33.1182    4.2977 C.3       9 UNK        -0.1959 
     57 C          33.5571   31.5145    4.3158 C.2       9 UNK         0.5033 
     58 O          34.1350   31.6940    5.3889 O.2       9 UNK        -0.5390 
     59 N          34.1904   31.2103    3.1724 N.am      10 UNK        -0.4215 
     60 CA         35.6426   31.1172    2.9782 C.3       10 UNK         0.0240 
     61 CB         35.9292   30.8117    1.4987 C.3       10 UNK        -0.1982 
     62 C          36.3643   30.0986    3.8806 C.2       10 UNK         0.4970 
     63 O          37.5532   30.2791    4.1472 O.2       10 UNK        -0.4916 
     64 N          35.6469   29.0645    4.3371 N.am      11 UNK        -0.4279 
     65 CA         36.1437   28.0745    5.3057 C.3       11 UNK         0.1003 
     66 C          36.1949   28.5950    6.7737 C.2       11 UNK         0.5709 
     67 N          35.6484   29.7623    7.0979 N.am      11 UNK        -0.7358 
     68 O          36.7554   27.9263    7.6390 O.2       11 UNK        -0.4999 
     69 C69        35.3655   26.7357    5.2154 C.3       12 UNK        -0.0954 
     70 S70        35.4660   25.9609    3.5645 S.3       12 UNK        -0.2268 
     71 C71        33.8206   26.3196    2.8750 C.3       12 UNK         0.0203 
     72 H72        25.3883   21.6442   -2.4793 H         1 UNK         0.0888 
     73 H73        26.3572   20.3663   -1.7407 H         1 UNK         0.0888 
     74 H74        25.2592   21.3267   -0.7470 H         1 UNK         0.0888 
     75 H75        28.4898   20.9789   -1.5094 H         1 UNK         0.3017 
     76 H76        30.3642   22.1044   -1.2342 H         1 UNK         0.0873 
     77 H77        30.5140   23.8879    0.5202 H         1 UNK         0.0745 
     78 H78        28.7722   23.9577    0.6256 H         1 UNK         0.0745 
     79 H79        31.4593   21.1047    2.8803 H         1 UNK         0.0705 
     80 H80        31.9965   21.8838    1.4116 H         1 UNK         0.0705 
     81 H81        33.0767   23.9852    1.7096 H         1 UNK         0.1334 
     82 H82        32.1940   26.4831    5.0822 H         1 UNK         0.1417 
     83 H83        30.1695   22.7361    4.6019 H         1 UNK         0.1562 
     84 H84        30.7313   25.7411    6.8166 H         1 UNK         0.0748 
     85 H85        30.6431   24.0103    6.9761 H         1 UNK         0.0748 
     86 H86        28.9476   27.1825    6.7157 H         1 UNK         0.0940 
     87 H87        27.2563   26.7823    6.6618 H         1 UNK         0.0940 
     88 H88        29.0867   27.2517    4.2632 H         1 UNK         0.0703 
     89 H89        26.8232   25.6594    4.2426 H         1 UNK         0.3081 
     90 H90        26.5515   24.7195    1.9579 H         1 UNK         0.0719 
     91 H91        24.1812   26.6263    2.3801 H         1 UNK         0.0809 
     92 H92        24.0352   24.9428    1.8831 H         1 UNK         0.0809 
     93 H93        24.6915   25.3379    3.4585 H         1 UNK         0.0809 
     94 H94        26.4141   25.1058   -0.1929 H         1 UNK         0.2990 
     95 H95        24.9586   25.9723   -2.1685 H         1 UNK         0.0690 
     96 H96        25.2362   27.9126   -3.7180 H         1 UNK         0.0788 
     97 H97        25.7343   28.9281   -2.3659 H         1 UNK         0.0788 
     98 H98        24.1119   28.2640   -2.4157 H         1 UNK         0.0788 
     99 H99        27.0348   25.3831   -2.5644 H         1 UNK         0.2993 
    100 H100       29.2249   25.9580   -3.6849 H         1 UNK         0.0949 
    101 H101       31.5305   26.5544   -2.9333 H         1 UNK         0.0767 
    102 H102       30.5842   27.9931   -3.2780 H         1 UNK         0.0767 
    103 H103       30.8732   27.5162   -1.6127 H         1 UNK         0.0767 
    104 H104       29.3553   25.3221   -0.7825 H         1 UNK         0.3013 
    105 H105       25.7870   28.3537    4.3150 H         1 UNK         0.3121 
    106 H106       26.1673   30.9399    5.4870 H         1 UNK         0.0774 
    107 H107       24.0340   29.9218    3.5281 H         1 UNK         0.0815 
    108 H108       23.9450   31.4186    4.4455 H         1 UNK         0.0815 
    109 H109       23.9280   29.8796    5.2894 H         1 UNK         0.0815 
    110 H110       26.6060   29.6785    2.1930 H         1 UNK         0.2987 
    111 H111       27.3247   32.3876    1.1564 H         1 UNK         0.0949 
    112 H112       25.7285   31.1130   -0.2396 H         1 UNK         0.0806 
    113 H113       26.8194   29.7324   -0.2705 H         1 UNK         0.0806 
    114 H114       27.2792   31.2326   -1.0624 H         1 UNK         0.0806 
    115 H115       28.5519   29.0451    1.6314 H         1 UNK         0.3010 
    116 H116       31.2488   29.6522    0.7604 H         1 UNK         0.0829 
    117 H117       31.6603   27.3218    1.2652 H         1 UNK         0.0813 
    118 H118       30.0630   27.4001    0.5396 H         1 UNK         0.0813 
    119 H119       30.2285   27.1919    2.2729 H         1 UNK         0.0813 
    120 H120       31.0451   31.6157    2.3597 H         1 UNK         0.3038 
    121 H121       31.6224   31.1480    5.1480 H         1 UNK         0.0769 
    122 H122       31.9605   33.6645    3.4248 H         1 UNK         0.0811 
    123 H123       32.0011   33.6157    5.1824 H         1 UNK         0.0811 
    124 H124       30.5159   33.2189    4.3341 H         1 UNK         0.0811 
    125 H125       33.6198   31.0867    2.3494 H         1 UNK         0.3204 
    126 H126       36.0598   32.0989    3.2116 H         1 UNK         0.0748 
    127 H127       37.0028   30.7651    1.3095 H         1 UNK         0.0771 
    128 H128       35.5035   29.8543    1.1947 H         1 UNK         0.0771 
    129 H129       35.5226   31.5844    0.8459 H         1 UNK         0.0771 
    130 H130       34.6712   29.0010    4.0897 H         1 UNK         0.2980 
    131 H131       37.1802   27.8544    5.0428 H         1 UNK         0.0545 
    132 H132       35.7012   30.0769    8.0533 H         1 UNK         0.3459 
    133 H133       35.1837   30.3412    6.4058 H         1 UNK         0.3459 
    134 H134       34.3261   26.8881    5.5006 H         1 UNK         0.0616 
    135 H135       35.7681   26.0131    5.9276 H         1 UNK         0.0616 
    136 H136       33.8891   26.2845    1.7869 H         1 UNK         0.0634 
    137 H137       33.5416   27.3404    3.1242 H         1 UNK         0.0634 
@<TRIPOS>BOND
     1    1    2 1    
     2    1   72 1    
     3    1   73 1    
     4    1   74 1    
     5    2    3 2    
     6    2    4 am   BACKBONE|DICT|INTERRES
     7    4    5 1    
     8    4   75 1    
     9    5    6 1    
    10    5   35 1    
    11    5   76 1    
    12    6    7 1    
    13    6   77 1    
    14    6   78 1    
    15    7    8 1    
    16    8    9 1    
    17    8   79 1    
    18    8   80 1    
    19    9   10 ar   
    20    9   14 ar   
    21   10   11 ar   
    22   10   81 1    
    23   11   12 ar   
    24   11   71 1    
    25   12   13 ar   
    26   12   82 1    
    27   13   14 ar   
    28   13   15 1    
    29   14   83 1    
    30   15   16 1    
    31   15   84 1    
    32   15   85 1    
    33   16   17 1    
    34   17   18 1    
    35   17   86 1    
    36   17   87 1    
    37   18   19 1    
    38   18   37 1    
    39   18   88 1    
    40   19   20 am   BACKBONE|DICT|INTERRES
    41   19   89 1    
    42   20   21 2    
    43   20   22 1    
    44   22   23 1    
    45   22   24 1    
    46   22   90 1    
    47   23   91 1    
    48   23   92 1    
    49   23   93 1    
    50   24   25 am   BACKBONE|DICT|INTERRES
    51   24   94 1    
    52   25   26 2    
    53   25   27 1    
    54   27   28 1    
    55   27   29 1    
    56   27   95 1    
    57   28   96 1    
    58   28   97 1    
    59   28   98 1    
    60   29   30 am   BACKBONE|DICT|INTERRES
    61   29   99 1    
    62   30   31 2    
    63   30   32 1    
    64   32   33 1    
    65   32   34 1    
    66   32  100 1    
    67   33  101 1    
    68   33  102 1    
    69   33  103 1    
    70   34   35 am   BACKBONE|DICT|INTERRES
    71   34  104 1    
    72   35   36 2    
    73   37   38 2    
    74   37   39 am   BACKBONE|DICT|INTERRES
    75   39   40 1    
    76   39  105 1    
    77   40   41 1    
    78   40   42 1    
    79   40  106 1    
    80   41  107 1    
    81   41  108 1    
    82   41  109 1    
    83   42   43 2    
    84   42   44 am   BACKBONE|DICT|INTERRES
    85   44   45 1    
    86   44  110 1    
    87   45   46 1    
    88   45   47 1    
    89   45  111 1    
    90   46  112 1    
    91   46  113 1    
    92   46  114 1    
    93   47   48 2    
    94   47   49 am   BACKBONE|DICT|INTERRES
    95   49   50 1    
    96   49  115 1    
    97   50   51 1    
    98   50   52 1    
    99   50  116 1    
   100   51  117 1    
   101   51  118 1    
   102   51  119 1    
   103   52   53 2    
   104   52   54 am   BACKBONE|DICT|INTERRES
   105   54   55 1    
   106   54  120 1    
   107   55   56 1    
   108   55   57 1    
   109   55  121 1    
   110   56  122 1    
   111   56  123 1    
   112   56  124 1    
   113   57   58 2    
   114   57   59 am   BACKBONE|DICT|INTERRES
   115   59   60 1    
   116   59  125 1    
   117   60   61 1    
   118   60   62 1    
   119   60  126 1    
   120   61  127 1    
   121   61  128 1    
   122   61  129 1    
   123   62   63 2    
   124   62   64 am   BACKBONE|DICT|INTERRES
   125   64   65 1    
   126   64  130 1    
   127   65   66 1    
   128   65   69 1    
   129   65  131 1    
   130   66   67 am   BACKBONE|DICT|INTERRES
   131   66   68 2    
   132   67  132 1    
   133   67  133 1    
   134   69   70 1    
   135   69  134 1    
   136   69  135 1    
   137   70   71 1    
   138   71  136 1    
   139   71  137 1    
@<TRIPOS>SUBSTRUCTURE
     1 UNK         1 GROUP             0       ****    0 ROOT    
