@<TRIPOS>MOLECULE
3R136
137   139    1
SMALL
USER_CHARGES


@<TRIPOS>ATOM
      1 CA         28.0062   20.8125    5.3154 C.3       0 UNK        -0.1979 
      2 C          27.7943   21.5435    3.9982 C.2       0 UNK         0.4864 
      3 O          26.6836   21.5355    3.4658 O.2       0 UNK        -0.5359 
      4 N          28.8496   22.1814    3.4722 N.am      1 UNK        -0.4318 
      5 CA         28.8477   22.9113    2.1966 C.3       1 UNK         0.0824 
      6 C6         30.2712   23.3417    1.7693 C.3       12 UNK        -0.0944 
      7 S7         31.4296   21.9444    1.5815 S.3       12 UNK        -0.2672 
      8 C8         32.1189   22.2465   -0.0846 C.3       12 UNK         0.0333 
      9 C9         32.7125   23.6443   -0.2462 C.ar      12 UNK        -0.0807 
     10 C10        33.6239   24.1437    0.6892 C.ar      12 UNK        -0.0894 
     11 C11        34.1281   25.4416    0.5705 C.ar      12 UNK        -0.0804 
     12 C12        33.7393   26.2346   -0.5136 C.ar      12 UNK        -0.0824 
     13 C13        32.8368   25.7463   -1.4627 C.ar      12 UNK        -0.0762 
     14 C14        32.3341   24.4473   -1.3276 C.ar      12 UNK        -0.0782 
     15 C15        32.4125   26.6240   -2.6339 C.3       12 UNK         0.0230 
     16 S16        31.1460   27.8498   -2.1644 S.3       12 UNK        -0.2608 
     17 C17        29.6728   26.7895   -1.9531 C.3       12 UNK        -0.0989 
     18 CA         28.6365   27.3452   -0.9412 C.3       5 UNK         0.0716 
     19 N          27.4617   26.4853   -0.8584 N.am      5 UNK        -0.4135 
     20 C          26.4542   26.4775   -1.7391 C.2       4 UNK         0.5031 
     21 O          26.3706   27.2619   -2.6851 O.2       4 UNK        -0.5229 
     22 CA         25.3610   25.4134   -1.5586 C.3       4 UNK         0.0329 
     23 CB         25.8175   24.0768   -2.1673 C.3       4 UNK        -0.2001 
     24 N          25.0226   25.2060   -0.1498 N.am      4 UNK        -0.4303 
     25 C          23.8392   25.4912    0.4105 C.2       3 UNK         0.5044 
     26 O          22.8849   25.9682   -0.2054 O.2       3 UNK        -0.5152 
     27 CA         23.6721   25.1836    1.9124 C.3       3 UNK         0.0319 
     28 CB         22.9691   23.8303    2.1059 C.3       3 UNK        -0.2001 
     29 N          24.9311   25.1763    2.6610 N.am      3 UNK        -0.4354 
     30 C          25.6883   26.2582    2.8891 C.2       2 UNK         0.4964 
     31 O          25.3744   27.3979    2.5460 O.2       2 UNK        -0.5047 
     32 CA         27.0321   26.0378    3.6062 C.3       2 UNK         0.0288 
     33 CB         26.8542   26.2488    5.1184 C.3       2 UNK        -0.2113 
     34 N          27.6903   24.7439    3.3782 N.am      2 UNK        -0.4145 
     35 C          27.9313   24.1517    2.1966 C.2       1 UNK         0.5006 
     36 O          27.4739   24.5461    1.1232 O.2       1 UNK        -0.5103 
     37 C          29.1998   27.4999    0.4801 C.2       5 UNK         0.5055 
     38 O          29.8729   26.5954    0.9724 O.2       5 UNK        -0.5220 
     39 N          28.9127   28.6428    1.1149 N.am      6 UNK        -0.4450 
     40 CA         29.5014   29.0347    2.3998 C.3       6 UNK         0.0367 
     41 CB         28.4623   29.8305    3.2066 C.3       6 UNK        -0.1929 
     42 C          30.7919   29.8589    2.2274 C.2       6 UNK         0.5070 
     43 O          31.4366   30.1699    3.2314 O.2       6 UNK        -0.5237 
     44 N          31.1330   30.2280    0.9818 N.am      7 UNK        -0.4739 
     45 CA         32.2042   31.1550    0.5963 C.3       7 UNK         0.0276 
     46 CB         33.5925   30.5327    0.8634 C.3       7 UNK        -0.1927 
     47 C          31.9831   32.5334    1.2494 C.2       7 UNK         0.5013 
     48 O          30.8691   33.0561    1.1741 O.2       7 UNK        -0.5193 
     49 N          33.0001   33.0798    1.9272 N.am      8 UNK        -0.4253 
     50 CA         32.9209   34.3125    2.7192 C.3       8 UNK         0.0242 
     51 CB         34.3252   34.9421    2.7946 C.3       8 UNK        -0.2000 
     52 C          32.3029   34.0702    4.1153 C.2       8 UNK         0.4948 
     53 O          32.8353   34.5660    5.1098 O.2       8 UNK        -0.5275 
     54 N          31.2058   33.2968    4.1615 N.am      9 UNK        -0.4246 
     55 CA         30.4824   32.8212    5.3490 C.3       9 UNK         0.0261 
     56 CB         29.7302   33.9860    6.0267 C.3       9 UNK        -0.1959 
     57 C          31.3954   32.0434    6.3196 C.2       9 UNK         0.5033 
     58 O          31.4149   32.3356    7.5178 O.2       9 UNK        -0.5390 
     59 N          32.1606   31.0928    5.7693 N.am      10 UNK        -0.4215 
     60 CA         33.2163   30.3597    6.4705 C.3       10 UNK         0.0240 
     61 CB         34.5849   30.8950    6.0145 C.3       10 UNK        -0.1982 
     62 C          33.1372   28.8418    6.2572 C.2       10 UNK         0.4970 
     63 O          33.4462   28.0986    7.1900 O.2       10 UNK        -0.4916 
     64 N          32.7554   28.3988    5.0535 N.am      11 UNK        -0.4279 
     65 CA         32.6534   26.9765    4.6959 C.3       11 UNK         0.1003 
     66 C          31.3445   26.3371    5.2298 C.2       11 UNK         0.5709 
     67 N          31.3502   25.0356    5.4863 N.am      11 UNK        -0.7358 
     68 O          30.3217   26.9991    5.3902 O.2       11 UNK        -0.4999 
     69 C69        32.8003   26.7540    3.1708 C.3       12 UNK        -0.0954 
     70 S70        34.3674   27.4211    2.5103 S.3       12 UNK        -0.2268 
     71 C71        35.0728   25.9901    1.6313 C.3       12 UNK         0.0203 
     72 H72        27.3493   21.2225    6.0820 H         1 UNK         0.0888 
     73 H73        27.7740   19.7544    5.1979 H         1 UNK         0.0888 
     74 H74        29.0339   20.8965    5.6683 H         1 UNK         0.0888 
     75 H75        29.7457   22.1263    3.9358 H         1 UNK         0.3017 
     76 H76        28.4557   22.2334    1.4353 H         1 UNK         0.0873 
     77 H77        30.6985   24.0421    2.4901 H         1 UNK         0.0745 
     78 H78        30.2215   23.8846    0.8233 H         1 UNK         0.0745 
     79 H79        31.3309   22.0738   -0.8194 H         1 UNK         0.0705 
     80 H80        32.8957   21.5075   -0.2845 H         1 UNK         0.0705 
     81 H81        33.9163   23.5280    1.5288 H         1 UNK         0.1334 
     82 H82        34.1226   27.2416   -0.6053 H         1 UNK         0.1417 
     83 H83        31.6350   24.0661   -2.0593 H         1 UNK         0.1562 
     84 H84        32.0394   26.0152   -3.4590 H         1 UNK         0.0748 
     85 H85        33.2844   27.1539   -3.0202 H         1 UNK         0.0748 
     86 H86        29.9762   25.7881   -1.6487 H         1 UNK         0.0940 
     87 H87        29.2099   26.6744   -2.9343 H         1 UNK         0.0940 
     88 H88        28.3212   28.3316   -1.2890 H         1 UNK         0.0703 
     89 H89        27.4790   25.8009   -0.1019 H         1 UNK         0.3081 
     90 H90        24.4845   25.7523   -2.1149 H         1 UNK         0.0719 
     91 H91        26.0831   24.1957   -3.2187 H         1 UNK         0.0809 
     92 H92        26.6907   23.6737   -1.6521 H         1 UNK         0.0809 
     93 H93        25.0254   23.3295   -2.1161 H         1 UNK         0.0809 
     94 H94        25.7664   24.8466    0.4429 H         1 UNK         0.2990 
     95 H95        23.0348   25.9630    2.3355 H         1 UNK         0.0690 
     96 H96        22.7630   23.6366    3.1588 H         1 UNK         0.0788 
     97 H97        23.5709   23.0047    1.7233 H         1 UNK         0.0788 
     98 H98        22.0129   23.8078    1.5810 H         1 UNK         0.0788 
     99 H99        25.2723   24.2783    2.9748 H         1 UNK         0.2993 
    100 H100       27.7178   26.7994    3.2334 H         1 UNK         0.0949 
    101 H101       26.4195   27.2273    5.3282 H         1 UNK         0.0767 
    102 H102       26.1950   25.4972    5.5549 H         1 UNK         0.0767 
    103 H103       27.8071   26.2039    5.6446 H         1 UNK         0.0767 
    104 H104       28.0998   24.3128    4.1931 H         1 UNK         0.3013 
    105 H105       28.3160   29.3225    0.6636 H         1 UNK         0.3121 
    106 H106       29.7592   28.1438    2.9750 H         1 UNK         0.0774 
    107 H107       28.8234   30.0189    4.2180 H         1 UNK         0.0815 
    108 H108       28.2440   30.7960    2.7484 H         1 UNK         0.0815 
    109 H109       27.5240   29.2837    3.3008 H         1 UNK         0.0815 
    110 H110       30.5378   29.9212    0.2269 H         1 UNK         0.2987 
    111 H111       32.1110   31.3097   -0.4798 H         1 UNK         0.0949 
    112 H112       34.3927   31.1589    0.4671 H         1 UNK         0.0806 
    113 H113       33.6801   29.5630    0.3736 H         1 UNK         0.0806 
    114 H114       33.7808   30.3798    1.9266 H         1 UNK         0.0806 
    115 H115       33.8681   32.5667    1.9794 H         1 UNK         0.3010 
    116 H116       32.2690   35.0219    2.2047 H         1 UNK         0.0829 
    117 H117       35.0269   34.3001    3.3287 H         1 UNK         0.0813 
    118 H118       34.7305   35.1299    1.8002 H         1 UNK         0.0813 
    119 H119       34.2980   35.9004    3.3153 H         1 UNK         0.0813 
    120 H120       30.8602   32.9555    3.2711 H         1 UNK         0.3038 
    121 H121       29.7364   32.1105    4.9929 H         1 UNK         0.0769 
    122 H122       29.1142   33.6259    6.8516 H         1 UNK         0.0811 
    123 H123       29.0672   34.4917    5.3248 H         1 UNK         0.0811 
    124 H124       30.4170   34.7288    6.4339 H         1 UNK         0.0811 
    125 H125       32.0118   30.8708    4.7853 H         1 UNK         0.3204 
    126 H126       33.1324   30.5245    7.5468 H         1 UNK         0.0748 
    127 H127       35.3985   30.3784    6.5255 H         1 UNK         0.0771 
    128 H128       34.7329   30.7612    4.9420 H         1 UNK         0.0771 
    129 H129       34.6856   31.9582    6.2351 H         1 UNK         0.0771 
    130 H130       32.4519   29.0529    4.3400 H         1 UNK         0.2980 
    131 H131       33.4840   26.4550    5.1762 H         1 UNK         0.0545 
    132 H132       30.5166   24.6104    5.8564 H         1 UNK         0.3459 
    133 H133       32.1843   24.4836    5.3642 H         1 UNK         0.3459 
    134 H134       32.7400   25.6882    2.9471 H         1 UNK         0.0616 
    135 H135       31.9800   27.2192    2.6253 H         1 UNK         0.0616 
    136 H136       35.3303   25.2218    2.3620 H         1 UNK         0.0634 
    137 H137       36.0073   26.2923    1.1572 H         1 UNK         0.0634 
@<TRIPOS>BOND
     1    1    2 1    
     2    1   72 1    
     3    1   73 1    
     4    1   74 1    
     5    2    3 2    
     6    2    4 am   BACKBONE|DICT|INTERRES
     7    4    5 1    
     8    4   75 1    
     9    5    6 1    
    10    5   35 1    
    11    5   76 1    
    12    6    7 1    
    13    6   77 1    
    14    6   78 1    
    15    7    8 1    
    16    8    9 1    
    17    8   79 1    
    18    8   80 1    
    19    9   10 ar   
    20    9   14 ar   
    21   10   11 ar   
    22   10   81 1    
    23   11   12 ar   
    24   11   71 1    
    25   12   13 ar   
    26   12   82 1    
    27   13   14 ar   
    28   13   15 1    
    29   14   83 1    
    30   15   16 1    
    31   15   84 1    
    32   15   85 1    
    33   16   17 1    
    34   17   18 1    
    35   17   86 1    
    36   17   87 1    
    37   18   19 1    
    38   18   37 1    
    39   18   88 1    
    40   19   20 am   BACKBONE|DICT|INTERRES
    41   19   89 1    
    42   20   21 2    
    43   20   22 1    
    44   22   23 1    
    45   22   24 1    
    46   22   90 1    
    47   23   91 1    
    48   23   92 1    
    49   23   93 1    
    50   24   25 am   BACKBONE|DICT|INTERRES
    51   24   94 1    
    52   25   26 2    
    53   25   27 1    
    54   27   28 1    
    55   27   29 1    
    56   27   95 1    
    57   28   96 1    
    58   28   97 1    
    59   28   98 1    
    60   29   30 am   BACKBONE|DICT|INTERRES
    61   29   99 1    
    62   30   31 2    
    63   30   32 1    
    64   32   33 1    
    65   32   34 1    
    66   32  100 1    
    67   33  101 1    
    68   33  102 1    
    69   33  103 1    
    70   34   35 am   BACKBONE|DICT|INTERRES
    71   34  104 1    
    72   35   36 2    
    73   37   38 2    
    74   37   39 am   BACKBONE|DICT|INTERRES
    75   39   40 1    
    76   39  105 1    
    77   40   41 1    
    78   40   42 1    
    79   40  106 1    
    80   41  107 1    
    81   41  108 1    
    82   41  109 1    
    83   42   43 2    
    84   42   44 am   BACKBONE|DICT|INTERRES
    85   44   45 1    
    86   44  110 1    
    87   45   46 1    
    88   45   47 1    
    89   45  111 1    
    90   46  112 1    
    91   46  113 1    
    92   46  114 1    
    93   47   48 2    
    94   47   49 am   BACKBONE|DICT|INTERRES
    95   49   50 1    
    96   49  115 1    
    97   50   51 1    
    98   50   52 1    
    99   50  116 1    
   100   51  117 1    
   101   51  118 1    
   102   51  119 1    
   103   52   53 2    
   104   52   54 am   BACKBONE|DICT|INTERRES
   105   54   55 1    
   106   54  120 1    
   107   55   56 1    
   108   55   57 1    
   109   55  121 1    
   110   56  122 1    
   111   56  123 1    
   112   56  124 1    
   113   57   58 2    
   114   57   59 am   BACKBONE|DICT|INTERRES
   115   59   60 1    
   116   59  125 1    
   117   60   61 1    
   118   60   62 1    
   119   60  126 1    
   120   61  127 1    
   121   61  128 1    
   122   61  129 1    
   123   62   63 2    
   124   62   64 am   BACKBONE|DICT|INTERRES
   125   64   65 1    
   126   64  130 1    
   127   65   66 1    
   128   65   69 1    
   129   65  131 1    
   130   66   67 am   BACKBONE|DICT|INTERRES
   131   66   68 2    
   132   67  132 1    
   133   67  133 1    
   134   69   70 1    
   135   69  134 1    
   136   69  135 1    
   137   70   71 1    
   138   71  136 1    
   139   71  137 1    
@<TRIPOS>SUBSTRUCTURE
     1 UNK         1 GROUP             0       ****    0 ROOT    
