@<TRIPOS>MOLECULE
3R136
137   139    1
SMALL
USER_CHARGES


@<TRIPOS>ATOM
      1 CA         30.7904   23.0959    6.6519 C.3       0 UNK        -0.1979 
      2 C          29.9410   22.2535    5.7138 C.2       0 UNK         0.4864 
      3 O          29.2138   21.3686    6.1698 O.2       0 UNK        -0.5359 
      4 N          30.0415   22.5139    4.4048 N.am      1 UNK        -0.4318 
      5 CA         29.2526   21.8507    3.3602 C.3       1 UNK         0.0824 
      6 C6         29.9450   21.9610    1.9740 C.3       12 UNK        -0.0944 
      7 S7         29.9492   23.6511    1.2881 S.3       12 UNK        -0.2672 
      8 C8         31.3184   23.6141    0.0961 C.3       12 UNK         0.0333 
      9 C9         32.2570   24.7858    0.3333 C.ar      12 UNK        -0.0807 
     10 C10        33.5496   24.5714    0.8195 C.ar      12 UNK        -0.0894 
     11 C11        34.4072   25.6513    1.0475 C.ar      12 UNK        -0.0804 
     12 C12        33.9619   26.9510    0.7884 C.ar      12 UNK        -0.0824 
     13 C13        32.6654   27.1809    0.3207 C.ar      12 UNK        -0.0762 
     14 C14        31.8214   26.0909    0.0837 C.ar      12 UNK        -0.0782 
     15 C15        32.1674   28.6101    0.1587 C.3       12 UNK         0.0230 
     16 S16        31.2760   28.9053   -1.4015 S.3       12 UNK        -0.2608 
     17 C17        30.4021   30.4529   -0.9828 C.3       12 UNK        -0.0989 
     18 CA         28.8717   30.2557   -0.8207 C.3       5 UNK         0.0716 
     19 N          28.5442   29.1920    0.1367 N.am      5 UNK        -0.4135 
     20 C          27.4153   28.4733    0.1114 C.2       4 UNK         0.5031 
     21 O          26.4778   28.6840   -0.6621 O.2       4 UNK        -0.5229 
     22 CA         27.3081   27.3420    1.1488 C.3       4 UNK         0.0329 
     23 CB         26.4558   27.7935    2.3462 C.3       4 UNK        -0.2001 
     24 N          26.7360   26.1154    0.5885 N.am      4 UNK        -0.4303 
     25 C          27.2561   25.4101   -0.4251 C.2       3 UNK         0.5044 
     26 O          28.2952   25.7186   -1.0120 O.2       3 UNK        -0.5152 
     27 CA         26.4979   24.1302   -0.8260 C.3       3 UNK         0.0319 
     28 CB         27.1438   23.4137   -2.0273 C.3       3 UNK        -0.2001 
     29 N          26.4113   23.1829    0.2879 N.am      3 UNK        -0.4354 
     30 C          25.4863   23.1995    1.2578 C.2       2 UNK         0.4964 
     31 O          24.6059   24.0568    1.3419 O.2       2 UNK        -0.5047 
     32 CA         25.5541   22.0752    2.3090 C.3       2 UNK         0.0288 
     33 CB         24.7245   20.8635    1.8534 C.3       2 UNK        -0.2113 
     34 N          26.9284   21.6465    2.5898 N.am      2 UNK        -0.4145 
     35 C          27.7889   22.3570    3.3328 C.2       1 UNK         0.5006 
     36 O          27.4670   23.3843    3.9370 O.2       1 UNK        -0.5103 
     37 C          28.2015   31.5988   -0.4649 C.2       5 UNK         0.5055 
     38 O          28.2052   32.5028   -1.3015 O.2       5 UNK        -0.5220 
     39 N          27.6981   31.7362    0.7733 N.am      6 UNK        -0.4450 
     40 CA         27.0950   32.9221    1.4058 C.3       6 UNK         0.0367 
     41 CB         25.8832   33.4515    0.6144 C.3       6 UNK        -0.1929 
     42 C          28.1077   34.0423    1.7054 C.2       6 UNK         0.5070 
     43 O          28.0857   34.5987    2.8028 O.2       6 UNK        -0.5237 
     44 N          29.0121   34.3145    0.7566 N.am      7 UNK        -0.4739 
     45 CA         30.1859   35.1775    0.9199 C.3       7 UNK         0.0276 
     46 CB         30.7589   35.5055   -0.4683 C.3       7 UNK        -0.1927 
     47 C          31.2728   34.5515    1.8168 C.2       7 UNK         0.5013 
     48 O          32.1225   35.2801    2.3305 O.2       7 UNK        -0.5193 
     49 N          31.2220   33.2259    1.9941 N.am      8 UNK        -0.4253 
     50 CA         32.0509   32.4477    2.9042 C.3       8 UNK         0.0242 
     51 CB         33.2612   31.8722    2.1532 C.3       8 UNK        -0.2000 
     52 C          31.1720   31.3408    3.4928 C.2       8 UNK         0.4948 
     53 O          30.3682   30.7460    2.7649 O.2       8 UNK        -0.5275 
     54 N          31.3404   31.0823    4.7949 N.am      9 UNK        -0.4246 
     55 CA         30.5049   30.1983    5.6134 C.3       9 UNK         0.0261 
     56 CB         30.6343   30.6235    7.0888 C.3       9 UNK        -0.1959 
     57 C          30.7931   28.6982    5.4061 C.2       9 UNK         0.5033 
     58 O          31.0167   27.9743    6.3789 O.2       9 UNK        -0.5390 
     59 N          30.7782   28.2571    4.1404 N.am      10 UNK        -0.4215 
     60 CA         30.8007   26.8573    3.6822 C.3       10 UNK         0.0240 
     61 CB         29.4914   26.1688    4.1195 C.3       10 UNK        -0.1982 
     62 C          32.0318   26.0291    4.1162 C.2       10 UNK         0.4970 
     63 O          31.9554   24.7986    4.1116 O.2       10 UNK        -0.4916 
     64 N          33.1145   26.7067    4.5263 N.am      11 UNK        -0.4279 
     65 CA         34.2711   26.1335    5.2381 C.3       11 UNK         0.1003 
     66 C          33.9087   25.4711    6.6061 C.2       11 UNK         0.5709 
     67 N          32.8287   25.8763    7.2659 N.am      11 UNK        -0.7358 
     68 O          34.6269   24.6053    7.1011 O.2       11 UNK        -0.4999 
     69 C69        35.1790   25.2520    4.3290 C.3       12 UNK        -0.0954 
     70 S70        36.1300   26.2632    3.1461 S.3       12 UNK        -0.2268 
     71 C71        35.8188   25.4166    1.5646 C.3       12 UNK         0.0203 
     72 H72        31.8298   23.1046    6.3246 H         1 UNK         0.0888 
     73 H73        30.4278   24.1232    6.6726 H         1 UNK         0.0888 
     74 H74        30.7593   22.7017    7.6672 H         1 UNK         0.0888 
     75 H75        30.6378   23.2776    4.0962 H         1 UNK         0.3017 
     76 H76        29.2101   20.7893    3.6144 H         1 UNK         0.0873 
     77 H77        30.9743   21.6085    2.0574 H         1 UNK         0.0745 
     78 H78        29.4650   21.3002    1.2505 H         1 UNK         0.0745 
     79 H79        31.8561   22.6671    0.1570 H         1 UNK         0.0705 
     80 H80        30.9092   23.6732   -0.9135 H         1 UNK         0.0705 
     81 H81        33.8860   23.5644    1.0247 H         1 UNK         0.1334 
     82 H82        34.6227   27.7853    0.9811 H         1 UNK         0.1417 
     83 H83        30.8113   26.2549   -0.2685 H         1 UNK         0.1562 
     84 H84        33.0047   29.3068    0.2016 H         1 UNK         0.0748 
     85 H85        31.5212   28.8419    1.0054 H         1 UNK         0.0748 
     86 H86        30.6059   31.1679   -1.7827 H         1 UNK         0.0940 
     87 H87        30.8357   30.8885   -0.0807 H         1 UNK         0.0940 
     88 H88        28.4771   29.9622   -1.7962 H         1 UNK         0.0703 
     89 H89        29.2599   28.9678    0.8108 H         1 UNK         0.3081 
     90 H90        28.3103   27.0923    1.5023 H         1 UNK         0.0719 
     91 H91        25.4498   28.0814    2.0372 H         1 UNK         0.0809 
     92 H92        26.3600   27.0017    3.0897 H         1 UNK         0.0809 
     93 H93        26.9037   28.6542    2.8446 H         1 UNK         0.0809 
     94 H94        25.8779   25.7737    1.0042 H         1 UNK         0.2990 
     95 H95        25.4902   24.4299   -1.1220 H         1 UNK         0.0690 
     96 H96        26.5660   22.5387   -2.3257 H         1 UNK         0.0788 
     97 H97        28.1598   23.0857   -1.8026 H         1 UNK         0.0788 
     98 H98        27.1983   24.0748   -2.8933 H         1 UNK         0.0788 
     99 H99        27.1331   22.4793    0.3278 H         1 UNK         0.2993 
    100 H100       25.1124   22.4606    3.2311 H         1 UNK         0.0949 
    101 H101       24.7047   20.0866    2.6181 H         1 UNK         0.0767 
    102 H102       23.6901   21.1509    1.6591 H         1 UNK         0.0767 
    103 H103       25.1180   20.4231    0.9362 H         1 UNK         0.0767 
    104 H104       27.2451   20.8002    2.1387 H         1 UNK         0.3013 
    105 H105       27.8054   30.9429    1.3898 H         1 UNK         0.3121 
    106 H106       26.7225   32.5766    2.3717 H         1 UNK         0.0774 
    107 H107       25.3789   34.2456    1.1665 H         1 UNK         0.0815 
    108 H108       26.1707   33.8662   -0.3520 H         1 UNK         0.0815 
    109 H109       25.1508   32.6640    0.4375 H         1 UNK         0.0815 
    110 H110       28.9126   33.8236   -0.1287 H         1 UNK         0.2987 
    111 H111       29.8663   36.1083    1.3935 H         1 UNK         0.0949 
    112 H112       31.0847   34.6065   -0.9934 H         1 UNK         0.0806 
    113 H113       30.0214   36.0103   -1.0926 H         1 UNK         0.0806 
    114 H114       31.6219   36.1681   -0.3885 H         1 UNK         0.0806 
    115 H115       30.4520   32.7135    1.5866 H         1 UNK         0.3010 
    116 H116       32.4021   33.0859    3.7184 H         1 UNK         0.0829 
    117 H117       33.9309   32.6668    1.8236 H         1 UNK         0.0813 
    118 H118       33.8407   31.2008    2.7882 H         1 UNK         0.0813 
    119 H119       32.9544   31.3138    1.2708 H         1 UNK         0.0813 
    120 H120       32.0603   31.5869    5.2928 H         1 UNK         0.3038 
    121 H121       29.4638   30.3531    5.3212 H         1 UNK         0.0769 
    122 H122       31.6514   30.4901    7.4596 H         1 UNK         0.0811 
    123 H123       29.9753   30.0325    7.7267 H         1 UNK         0.0811 
    124 H124       30.3590   31.6691    7.2278 H         1 UNK         0.0811 
    125 H125       30.6201   28.9674    3.4298 H         1 UNK         0.3204 
    126 H126       30.8151   26.8862    2.5936 H         1 UNK         0.0748 
    127 H127       28.6207   26.7834    3.9023 H         1 UNK         0.0771 
    128 H128       29.3534   25.2226    3.6012 H         1 UNK         0.0771 
    129 H129       29.4838   25.9559    5.1889 H         1 UNK         0.0771 
    130 H130       33.0733   27.7136    4.5058 H         1 UNK         0.2980 
    131 H131       34.8688   26.9941    5.5400 H         1 UNK         0.0545 
    132 H132       32.6144   25.4592    8.1566 H         1 UNK         0.3459 
    133 H133       32.2253   26.6049    6.8920 H         1 UNK         0.3459 
    134 H134       34.5928   24.4966    3.8044 H         1 UNK         0.0616 
    135 H135       35.9175   24.7045    4.9160 H         1 UNK         0.0616 
    136 H136       36.5283   25.7886    0.8245 H         1 UNK         0.0634 
    137 H137       36.0263   24.3518    1.6819 H         1 UNK         0.0634 
@<TRIPOS>BOND
     1    1    2 1    
     2    1   72 1    
     3    1   73 1    
     4    1   74 1    
     5    2    3 2    
     6    2    4 am   BACKBONE|DICT|INTERRES
     7    4    5 1    
     8    4   75 1    
     9    5    6 1    
    10    5   35 1    
    11    5   76 1    
    12    6    7 1    
    13    6   77 1    
    14    6   78 1    
    15    7    8 1    
    16    8    9 1    
    17    8   79 1    
    18    8   80 1    
    19    9   10 ar   
    20    9   14 ar   
    21   10   11 ar   
    22   10   81 1    
    23   11   12 ar   
    24   11   71 1    
    25   12   13 ar   
    26   12   82 1    
    27   13   14 ar   
    28   13   15 1    
    29   14   83 1    
    30   15   16 1    
    31   15   84 1    
    32   15   85 1    
    33   16   17 1    
    34   17   18 1    
    35   17   86 1    
    36   17   87 1    
    37   18   19 1    
    38   18   37 1    
    39   18   88 1    
    40   19   20 am   BACKBONE|DICT|INTERRES
    41   19   89 1    
    42   20   21 2    
    43   20   22 1    
    44   22   23 1    
    45   22   24 1    
    46   22   90 1    
    47   23   91 1    
    48   23   92 1    
    49   23   93 1    
    50   24   25 am   BACKBONE|DICT|INTERRES
    51   24   94 1    
    52   25   26 2    
    53   25   27 1    
    54   27   28 1    
    55   27   29 1    
    56   27   95 1    
    57   28   96 1    
    58   28   97 1    
    59   28   98 1    
    60   29   30 am   BACKBONE|DICT|INTERRES
    61   29   99 1    
    62   30   31 2    
    63   30   32 1    
    64   32   33 1    
    65   32   34 1    
    66   32  100 1    
    67   33  101 1    
    68   33  102 1    
    69   33  103 1    
    70   34   35 am   BACKBONE|DICT|INTERRES
    71   34  104 1    
    72   35   36 2    
    73   37   38 2    
    74   37   39 am   BACKBONE|DICT|INTERRES
    75   39   40 1    
    76   39  105 1    
    77   40   41 1    
    78   40   42 1    
    79   40  106 1    
    80   41  107 1    
    81   41  108 1    
    82   41  109 1    
    83   42   43 2    
    84   42   44 am   BACKBONE|DICT|INTERRES
    85   44   45 1    
    86   44  110 1    
    87   45   46 1    
    88   45   47 1    
    89   45  111 1    
    90   46  112 1    
    91   46  113 1    
    92   46  114 1    
    93   47   48 2    
    94   47   49 am   BACKBONE|DICT|INTERRES
    95   49   50 1    
    96   49  115 1    
    97   50   51 1    
    98   50   52 1    
    99   50  116 1    
   100   51  117 1    
   101   51  118 1    
   102   51  119 1    
   103   52   53 2    
   104   52   54 am   BACKBONE|DICT|INTERRES
   105   54   55 1    
   106   54  120 1    
   107   55   56 1    
   108   55   57 1    
   109   55  121 1    
   110   56  122 1    
   111   56  123 1    
   112   56  124 1    
   113   57   58 2    
   114   57   59 am   BACKBONE|DICT|INTERRES
   115   59   60 1    
   116   59  125 1    
   117   60   61 1    
   118   60   62 1    
   119   60  126 1    
   120   61  127 1    
   121   61  128 1    
   122   61  129 1    
   123   62   63 2    
   124   62   64 am   BACKBONE|DICT|INTERRES
   125   64   65 1    
   126   64  130 1    
   127   65   66 1    
   128   65   69 1    
   129   65  131 1    
   130   66   67 am   BACKBONE|DICT|INTERRES
   131   66   68 2    
   132   67  132 1    
   133   67  133 1    
   134   69   70 1    
   135   69  134 1    
   136   69  135 1    
   137   70   71 1    
   138   71  136 1    
   139   71  137 1    
@<TRIPOS>SUBSTRUCTURE
     1 UNK         1 GROUP             0       ****    0 ROOT    
