@<TRIPOS>MOLECULE
3R136
137   139    1
SMALL
USER_CHARGES


@<TRIPOS>ATOM
      1 CA         34.6044   22.6584   -0.0070 C.3       0 UNK        -0.1979 
      2 C          33.4522   23.3442    0.7100 C.2       0 UNK         0.4864 
      3 O          33.6747   24.0639    1.6850 O.2       0 UNK        -0.5359 
      4 N          32.2178   23.1505    0.2293 N.am      1 UNK        -0.4318 
      5 CA         30.9799   23.6747    0.8225 C.3       1 UNK         0.0824 
      6 C6         29.7445   22.8096    0.4464 C.3       12 UNK        -0.0944 
      7 S7         29.9120   21.0036    0.7124 S.3       12 UNK        -0.2672 
      8 C8         30.2138   20.7931    2.5050 C.3       12 UNK         0.0333 
      9 C9         29.4773   21.8038    3.3727 C.ar      12 UNK        -0.0807 
     10 C10        30.2079   22.7035    4.1515 C.ar      12 UNK        -0.0894 
     11 C11        29.5617   23.7263    4.8453 C.ar      12 UNK        -0.0804 
     12 C12        28.1667   23.8048    4.8206 C.ar      12 UNK        -0.0824 
     13 C13        27.4233   22.9056    4.0490 C.ar      12 UNK        -0.0762 
     14 C14        28.0821   21.8930    3.3442 C.ar      12 UNK        -0.0782 
     15 C15        25.9168   23.0656    3.9138 C.3       12 UNK         0.0230 
     16 S16        25.4899   24.1158    2.4812 S.3       12 UNK        -0.2608 
     17 C17        25.8279   25.7945    3.1168 C.3       12 UNK        -0.0989 
     18 CA         27.1437   26.4119    2.5469 C.3       5 UNK         0.0716 
     19 N          27.1347   26.5937    1.0888 N.am      5 UNK        -0.4135 
     20 C          26.2827   27.3448    0.3788 C.2       4 UNK         0.5031 
     21 O          25.3656   28.0036    0.8748 O.2       4 UNK        -0.5229 
     22 CA         26.5155   27.3844   -1.1401 C.3       4 UNK         0.0329 
     23 CB         25.3557   28.0764   -1.8930 C.3       4 UNK        -0.2001 
     24 N          27.7870   28.0524   -1.4192 N.am      4 UNK        -0.4303 
     25 C          28.4248   28.0560   -2.5997 C.2       3 UNK         0.5044 
     26 O          28.0236   27.4623   -3.6014 O.2       3 UNK        -0.5152 
     27 CA         29.7364   28.8579   -2.6825 C.3       3 UNK         0.0319 
     28 CB         29.4497   30.3525   -2.8987 C.3       3 UNK        -0.2001 
     29 N          30.5494   28.6720   -1.4799 N.am      3 UNK        -0.4354 
     30 C          31.3404   27.6104   -1.2755 C.2       2 UNK         0.4964 
     31 O          31.6308   26.7984   -2.1574 O.2       2 UNK        -0.5047 
     32 CA         31.8868   27.3970    0.1526 C.3       2 UNK         0.0288 
     33 CB         31.2060   28.2826    1.2180 C.3       2 UNK        -0.2113 
     34 N          31.8173   25.9831    0.5443 N.am      2 UNK        -0.4145 
     35 C          30.7440   25.1755    0.5158 C.2       1 UNK         0.5006 
     36 O          29.6062   25.5666    0.2397 O.2       1 UNK        -0.5103 
     37 C          27.5869   27.6977    3.2874 C.2       5 UNK         0.5055 
     38 O          28.0240   28.6660    2.6604 O.2       5 UNK        -0.5220 
     39 N          27.4914   27.6749    4.6261 N.am      6 UNK        -0.4450 
     40 CA         28.0187   28.6727    5.5672 C.3       6 UNK         0.0367 
     41 CB         27.9007   28.1106    6.9945 C.3       6 UNK        -0.1929 
     42 C          27.4063   30.0858    5.4781 C.2       6 UNK         0.5070 
     43 O          27.8429   30.9759    6.2089 O.2       6 UNK        -0.5237 
     44 N          26.4300   30.2881    4.5836 N.am      7 UNK        -0.4739 
     45 CA         25.9638   31.6063    4.1494 C.3       7 UNK         0.0276 
     46 CB         24.6803   31.4349    3.3211 C.3       7 UNK        -0.1927 
     47 C          27.0312   32.3718    3.3401 C.2       7 UNK         0.5013 
     48 O          26.9883   33.6026    3.3087 O.2       7 UNK        -0.5193 
     49 N          27.9638   31.6396    2.7157 N.am      8 UNK        -0.4253 
     50 CA         29.1333   32.1666    2.0194 C.3       8 UNK         0.0242 
     51 CB         29.2215   31.4872    0.6451 C.3       8 UNK        -0.2000 
     52 C          30.4014   31.9062    2.8495 C.2       8 UNK         0.4948 
     53 O          30.4186   31.0147    3.7018 O.2       8 UNK        -0.5275 
     54 N          31.4439   32.7019    2.5832 N.am      9 UNK        -0.4246 
     55 CA         32.7443   32.6293    3.2533 C.3       9 UNK         0.0261 
     56 CB         33.4930   33.9524    3.0154 C.3       9 UNK        -0.1959 
     57 C          33.5936   31.4402    2.7693 C.2       9 UNK         0.5033 
     58 O          33.3856   30.9456    1.6592 O.2       9 UNK        -0.5390 
     59 N          34.5730   31.0547    3.6019 N.am      10 UNK        -0.4215 
     60 CA         35.5684   29.9950    3.3795 C.3       10 UNK         0.0240 
     61 CB         36.4959   30.3435    2.1941 C.3       10 UNK        -0.1982 
     62 C          34.9481   28.5875    3.2702 C.2       10 UNK         0.4970 
     63 O          35.3546   27.7966    2.4170 O.2       10 UNK        -0.4916 
     64 N          33.9779   28.3030    4.1471 N.am      11 UNK        -0.4279 
     65 CA         33.3200   26.9974    4.2736 C.3       11 UNK         0.1003 
     66 C          34.2492   25.9506    4.9433 C.2       11 UNK         0.5709 
     67 N          34.4441   24.7890    4.3354 N.am      11 UNK        -0.7358 
     68 O          34.7734   26.1798    6.0319 O.2       11 UNK        -0.4999 
     69 C69        31.9656   27.1379    5.0257 C.3       12 UNK        -0.0954 
     70 S70        30.6809   26.1120    4.2580 S.3       12 UNK        -0.2268 
     71 C71        30.3877   24.8187    5.4975 C.3       12 UNK         0.0203 
     72 H72        34.2612   22.0604   -0.8510 H         1 UNK         0.0888 
     73 H73        35.3089   23.4014   -0.3798 H         1 UNK         0.0888 
     74 H74        35.1343   22.0012    0.6818 H         1 UNK         0.0888 
     75 H75        32.0896   22.5671   -0.5854 H         1 UNK         0.3017 
     76 H76        31.0995   23.6330    1.9024 H         1 UNK         0.0873 
     77 H77        28.8612   23.1536    0.9874 H         1 UNK         0.0745 
     78 H78        29.5078   22.9489   -0.6101 H         1 UNK         0.0745 
     79 H79        29.9166   19.7853    2.7977 H         1 UNK         0.0705 
     80 H80        31.2899   20.8540    2.6753 H         1 UNK         0.0705 
     81 H81        31.2891   22.6621    4.1526 H         1 UNK         0.1334 
     82 H82        27.6683   24.6044    5.3485 H         1 UNK         0.1417 
     83 H83        27.5160   21.2128    2.7220 H         1 UNK         0.1562 
     84 H84        25.4858   23.4766    4.8280 H         1 UNK         0.0748 
     85 H85        25.4549   22.0864    3.7784 H         1 UNK         0.0748 
     86 H86        25.8406   25.7352    4.2043 H         1 UNK         0.0940 
     87 H87        24.9708   26.4263    2.8804 H         1 UNK         0.0940 
     88 H88        27.9479   25.6978    2.7278 H         1 UNK         0.0703 
     89 H89        27.9223   26.1600    0.6088 H         1 UNK         0.3081 
     90 H90        26.5832   26.3498   -1.4833 H         1 UNK         0.0719 
     91 H91        24.3987   27.6169   -1.6423 H         1 UNK         0.0809 
     92 H92        25.2874   29.1346   -1.6383 H         1 UNK         0.0809 
     93 H93        25.4699   27.9993   -2.9739 H         1 UNK         0.0809 
     94 H94        28.1991   28.5377   -0.6354 H         1 UNK         0.2990 
     95 H95        30.2963   28.5005   -3.5497 H         1 UNK         0.0690 
     96 H96        30.3713   30.9336   -2.9392 H         1 UNK         0.0788 
     97 H97        28.8223   30.7676   -2.1110 H         1 UNK         0.0788 
     98 H98        28.9261   30.5109   -3.8425 H         1 UNK         0.0788 
     99 H99        30.3997   29.3094   -0.7131 H         1 UNK         0.2993 
    100 H100       32.9449   27.6624    0.1227 H         1 UNK         0.0949 
    101 H101       30.1368   28.0860    1.2850 H         1 UNK         0.0767 
    102 H102       31.6298   28.1142    2.2052 H         1 UNK         0.0767 
    103 H103       31.3476   29.3423    1.0087 H         1 UNK         0.0767 
    104 H104       32.6969   25.5500    0.8064 H         1 UNK         0.3013 
    105 H105       27.0937   26.8550    5.0561 H         1 UNK         0.3121 
    106 H106       29.0801   28.7922    5.3386 H         1 UNK         0.0774 
    107 H107       26.8603   27.9494    7.2789 H         1 UNK         0.0815 
    108 H108       28.4305   27.1635    7.0948 H         1 UNK         0.0815 
    109 H109       28.3349   28.7954    7.7242 H         1 UNK         0.0815 
    110 H110       26.1466   29.5011    4.0178 H         1 UNK         0.2987 
    111 H111       25.7307   32.2002    5.0360 H         1 UNK         0.0949 
    112 H112       23.8930   30.9554    3.9030 H         1 UNK         0.0806 
    113 H113       24.2961   32.4017    2.9925 H         1 UNK         0.0806 
    114 H114       24.8537   30.8318    2.4283 H         1 UNK         0.0806 
    115 H115       27.9573   30.6300    2.8424 H         1 UNK         0.3010 
    116 H116       29.0364   33.2444    1.8714 H         1 UNK         0.0829 
    117 H117       30.1316   31.7708    0.1146 H         1 UNK         0.0813 
    118 H118       29.2100   30.4021    0.7392 H         1 UNK         0.0813 
    119 H119       28.3757   31.7742    0.0203 H         1 UNK         0.0813 
    120 H120       31.3641   33.3746    1.8347 H         1 UNK         0.3038 
    121 H121       32.5694   32.5148    4.3255 H         1 UNK         0.0769 
    122 H122       33.6963   34.1155    1.9561 H         1 UNK         0.0811 
    123 H123       32.9207   34.8046    3.3826 H         1 UNK         0.0811 
    124 H124       34.4522   33.9635    3.5347 H         1 UNK         0.0811 
    125 H125       34.6567   31.5429    4.4835 H         1 UNK         0.3204 
    126 H126       36.1902   29.9731    4.2759 H         1 UNK         0.0748 
    127 H127       35.9634   30.3262    1.2426 H         1 UNK         0.0771 
    128 H128       36.9377   31.3328    2.3131 H         1 UNK         0.0771 
    129 H129       37.3175   29.6302    2.1178 H         1 UNK         0.0771 
    130 H130       33.7210   28.9984    4.8307 H         1 UNK         0.2980 
    131 H131       33.1237   26.6576    3.2543 H         1 UNK         0.0545 
    132 H132       34.0613   24.6003    3.4109 H         1 UNK         0.3459 
    133 H133       35.0383   24.1041    4.7729 H         1 UNK         0.3459 
    134 H134       31.5965   28.1636    4.9664 H         1 UNK         0.0616 
    135 H135       32.0488   26.9181    6.0919 H         1 UNK         0.0616 
    136 H136       29.8712   25.2385    6.3614 H         1 UNK         0.0634 
    137 H137       31.3398   24.4202    5.8520 H         1 UNK         0.0634 
@<TRIPOS>BOND
     1    1    2 1    
     2    1   72 1    
     3    1   73 1    
     4    1   74 1    
     5    2    3 2    
     6    2    4 am   BACKBONE|DICT|INTERRES
     7    4    5 1    
     8    4   75 1    
     9    5    6 1    
    10    5   35 1    
    11    5   76 1    
    12    6    7 1    
    13    6   77 1    
    14    6   78 1    
    15    7    8 1    
    16    8    9 1    
    17    8   79 1    
    18    8   80 1    
    19    9   10 ar   
    20    9   14 ar   
    21   10   11 ar   
    22   10   81 1    
    23   11   12 ar   
    24   11   71 1    
    25   12   13 ar   
    26   12   82 1    
    27   13   14 ar   
    28   13   15 1    
    29   14   83 1    
    30   15   16 1    
    31   15   84 1    
    32   15   85 1    
    33   16   17 1    
    34   17   18 1    
    35   17   86 1    
    36   17   87 1    
    37   18   19 1    
    38   18   37 1    
    39   18   88 1    
    40   19   20 am   BACKBONE|DICT|INTERRES
    41   19   89 1    
    42   20   21 2    
    43   20   22 1    
    44   22   23 1    
    45   22   24 1    
    46   22   90 1    
    47   23   91 1    
    48   23   92 1    
    49   23   93 1    
    50   24   25 am   BACKBONE|DICT|INTERRES
    51   24   94 1    
    52   25   26 2    
    53   25   27 1    
    54   27   28 1    
    55   27   29 1    
    56   27   95 1    
    57   28   96 1    
    58   28   97 1    
    59   28   98 1    
    60   29   30 am   BACKBONE|DICT|INTERRES
    61   29   99 1    
    62   30   31 2    
    63   30   32 1    
    64   32   33 1    
    65   32   34 1    
    66   32  100 1    
    67   33  101 1    
    68   33  102 1    
    69   33  103 1    
    70   34   35 am   BACKBONE|DICT|INTERRES
    71   34  104 1    
    72   35   36 2    
    73   37   38 2    
    74   37   39 am   BACKBONE|DICT|INTERRES
    75   39   40 1    
    76   39  105 1    
    77   40   41 1    
    78   40   42 1    
    79   40  106 1    
    80   41  107 1    
    81   41  108 1    
    82   41  109 1    
    83   42   43 2    
    84   42   44 am   BACKBONE|DICT|INTERRES
    85   44   45 1    
    86   44  110 1    
    87   45   46 1    
    88   45   47 1    
    89   45  111 1    
    90   46  112 1    
    91   46  113 1    
    92   46  114 1    
    93   47   48 2    
    94   47   49 am   BACKBONE|DICT|INTERRES
    95   49   50 1    
    96   49  115 1    
    97   50   51 1    
    98   50   52 1    
    99   50  116 1    
   100   51  117 1    
   101   51  118 1    
   102   51  119 1    
   103   52   53 2    
   104   52   54 am   BACKBONE|DICT|INTERRES
   105   54   55 1    
   106   54  120 1    
   107   55   56 1    
   108   55   57 1    
   109   55  121 1    
   110   56  122 1    
   111   56  123 1    
   112   56  124 1    
   113   57   58 2    
   114   57   59 am   BACKBONE|DICT|INTERRES
   115   59   60 1    
   116   59  125 1    
   117   60   61 1    
   118   60   62 1    
   119   60  126 1    
   120   61  127 1    
   121   61  128 1    
   122   61  129 1    
   123   62   63 2    
   124   62   64 am   BACKBONE|DICT|INTERRES
   125   64   65 1    
   126   64  130 1    
   127   65   66 1    
   128   65   69 1    
   129   65  131 1    
   130   66   67 am   BACKBONE|DICT|INTERRES
   131   66   68 2    
   132   67  132 1    
   133   67  133 1    
   134   69   70 1    
   135   69  134 1    
   136   69  135 1    
   137   70   71 1    
   138   71  136 1    
   139   71  137 1    
@<TRIPOS>SUBSTRUCTURE
     1 UNK         1 GROUP             0       ****    0 ROOT    
