@<TRIPOS>MOLECULE
3R136
137   139    1
SMALL
USER_CHARGES


@<TRIPOS>ATOM
      1 CA         29.6464   20.4012   -4.1984 C.3       0 UNK        -0.1979 
      2 C          29.3572   21.6462   -3.3736 C.2       0 UNK         0.4864 
      3 O          29.0541   22.6995   -3.9374 O.2       0 UNK        -0.5359 
      4 N          29.4348   21.5368   -2.0408 N.am      1 UNK        -0.4318 
      5 CA         29.2154   22.6212   -1.0741 C.3       1 UNK         0.0824 
      6 C6         29.9337   22.3357    0.2707 C.3       12 UNK        -0.0944 
      7 S7         31.7444   22.3317    0.0714 S.3       12 UNK        -0.2672 
      8 C8         32.2948   22.1416    1.7959 C.3       12 UNK         0.0333 
      9 C9         32.0634   23.3957    2.6298 C.ar      12 UNK        -0.0807 
     10 C10        32.7956   24.5587    2.3687 C.ar      12 UNK        -0.0894 
     11 C11        32.6308   25.6950    3.1659 C.ar      12 UNK        -0.0804 
     12 C12        31.7291   25.6610    4.2327 C.ar      12 UNK        -0.0824 
     13 C13        30.9801   24.5122    4.4971 C.ar      12 UNK        -0.0762 
     14 C14        31.1494   23.3825    3.6893 C.ar      12 UNK        -0.0782 
     15 C15        30.0100   24.4766    5.6701 C.3       12 UNK         0.0230 
     16 S16        28.2981   24.7695    5.1269 S.3       12 UNK        -0.2608 
     17 C17        28.0272   26.5311    5.5442 C.3       12 UNK        -0.0989 
     18 CA         28.6646   27.5500    4.5616 C.3       5 UNK         0.0716 
     19 N          28.5454   27.1246    3.1666 N.am      5 UNK        -0.4135 
     20 C          29.0629   27.7463    2.1010 C.2       4 UNK         0.5031 
     21 O          29.7410   28.7708    2.1619 O.2       4 UNK        -0.5229 
     22 CA         28.7019   27.1677    0.7252 C.3       4 UNK         0.0329 
     23 CB         29.8076   26.2132    0.2526 C.3       4 UNK        -0.2001 
     24 N          27.3973   26.4900    0.6780 N.am      4 UNK        -0.4303 
     25 C          26.2147   27.0360    1.0093 C.2       3 UNK         0.5044 
     26 O          26.1042   28.1668    1.4886 O.2       3 UNK        -0.5152 
     27 CA         24.9507   26.1710    0.8266 C.3       3 UNK         0.0319 
     28 CB         23.7265   27.0144    0.4114 C.3       3 UNK        -0.2001 
     29 N          25.1303   25.0173   -0.0670 N.am      3 UNK        -0.4354 
     30 C          25.4025   25.0308   -1.3805 C.2       2 UNK         0.4964 
     31 O          25.5389   26.0548   -2.0516 O.2       2 UNK        -0.5047 
     32 CA         25.6171   23.6554   -2.0364 C.3       2 UNK         0.0288 
     33 CB         25.1456   23.6338   -3.5016 C.3       2 UNK        -0.2113 
     34 N          27.0284   23.2721   -1.9871 N.am      2 UNK        -0.4145 
     35 C          27.7111   22.9252   -0.8883 C.2       1 UNK         0.5006 
     36 O          27.1945   22.8457    0.2282 O.2       1 UNK        -0.5103 
     37 C          28.1090   28.9690    4.8173 C.2       5 UNK         0.5055 
     38 O          28.6001   29.6461    5.7212 O.2       5 UNK        -0.5220 
     39 N          27.1144   29.3896    4.0221 N.am      6 UNK        -0.4450 
     40 CA         26.5304   30.7294    4.0502 C.3       6 UNK         0.0367 
     41 CB         25.0024   30.6109    4.1764 C.3       6 UNK        -0.1929 
     42 C          26.8996   31.5266    2.7904 C.2       6 UNK         0.5070 
     43 O          27.1791   32.7203    2.8987 O.2       6 UNK        -0.5237 
     44 N          26.8739   30.8724    1.6192 N.am      7 UNK        -0.4739 
     45 CA         27.0714   31.5056    0.3124 C.3       7 UNK         0.0276 
     46 CB         26.5941   30.5523   -0.7955 C.3       7 UNK        -0.1927 
     47 C          28.5145   31.9652    0.0477 C.2       7 UNK         0.5013 
     48 O          28.6983   32.9827   -0.6221 O.2       7 UNK        -0.5193 
     49 N          29.5000   31.2209    0.5651 N.am      8 UNK        -0.4253 
     50 CA         30.9238   31.5500    0.4744 C.3       8 UNK         0.0242 
     51 CB         31.6955   30.3725   -0.1482 C.3       8 UNK        -0.2000 
     52 C          31.4795   31.9003    1.8602 C.2       8 UNK         0.4948 
     53 O          32.1619   32.9177    1.9916 O.2       8 UNK        -0.5275 
     54 N          31.1606   31.0641    2.8606 N.am      9 UNK        -0.4246 
     55 CA         31.6214   31.1261    4.2511 C.3       9 UNK         0.0261 
     56 CB         31.0377   32.3644    4.9681 C.3       9 UNK        -0.1959 
     57 C          33.1557   30.9946    4.3494 C.2       9 UNK         0.5033 
     58 O          33.7489   30.2754    3.5442 O.2       9 UNK        -0.5390 
     59 N          33.7714   31.6377    5.3519 N.am      10 UNK        -0.4215 
     60 CA         35.2119   31.6948    5.6615 C.3       10 UNK         0.0240 
     61 CB         36.0103   32.3206    4.5001 C.3       10 UNK        -0.1982 
     62 C          35.8569   30.3698    6.1205 C.2       10 UNK         0.4970 
     63 O          36.8060   30.4221    6.9042 O.2       10 UNK        -0.4916 
     64 N          35.3480   29.2248    5.6496 N.am      11 UNK        -0.4279 
     65 CA         35.7440   27.8643    6.0452 C.3       11 UNK         0.1003 
     66 C          35.6365   27.6179    7.5767 C.2       11 UNK         0.5709 
     67 N          36.5845   26.8960    8.1589 N.am      11 UNK        -0.7358 
     68 O          34.6799   28.0353    8.2276 O.2       11 UNK        -0.4999 
     69 C69        34.9206   26.7924    5.2854 C.3       12 UNK        -0.0954 
     70 S70        35.1412   26.8531    3.4746 S.3       12 UNK        -0.2268 
     71 C71        33.4227   26.9618    2.8762 C.3       12 UNK         0.0203 
     72 H72        28.7747   20.1365   -4.7961 H         1 UNK         0.0888 
     73 H73        30.4807   20.5856   -4.8746 H         1 UNK         0.0888 
     74 H74        29.9007   19.5468   -3.5714 H         1 UNK         0.0888 
     75 H75        29.6756   20.6435   -1.6355 H         1 UNK         0.3017 
     76 H76        29.6538   23.5318   -1.4881 H         1 UNK         0.0873 
     77 H77        29.6812   23.0891    1.0179 H         1 UNK         0.0745 
     78 H78        29.6159   21.3775    0.6858 H         1 UNK         0.0745 
     79 H79        31.7964   21.2778    2.2387 H         1 UNK         0.0705 
     80 H80        33.3609   21.9105    1.7974 H         1 UNK         0.0705 
     81 H81        33.5027   24.5753    1.5504 H         1 UNK         0.1334 
     82 H82        31.6209   26.5294    4.8648 H         1 UNK         0.1417 
     83 H83        30.5783   22.4879    3.8981 H         1 UNK         0.1562 
     84 H84        30.2960   25.2014    6.4338 H         1 UNK         0.0748 
     85 H85        30.0604   23.4985    6.1508 H         1 UNK         0.0748 
     86 H86        28.3792   26.7158    6.5610 H         1 UNK         0.0940 
     87 H87        26.9445   26.6705    5.5803 H         1 UNK         0.0940 
     88 H88        29.7298   27.6072    4.7774 H         1 UNK         0.0703 
     89 H89        28.0244   26.2731    3.0169 H         1 UNK         0.3081 
     90 H90        28.6575   28.0037    0.0258 H         1 UNK         0.0719 
     91 H91        29.9171   25.3612    0.9231 H         1 UNK         0.0809 
     92 H92        29.6115   25.8413   -0.7524 H         1 UNK         0.0809 
     93 H93        30.7729   26.7213    0.2239 H         1 UNK         0.0809 
     94 H94        27.3871   25.5448    0.3241 H         1 UNK         0.2990 
     95 H95        24.7383   25.7530    1.8115 H         1 UNK         0.0690 
     96 H96        22.8368   26.3951    0.2980 H         1 UNK         0.0788 
     97 H97        23.8948   27.5380   -0.5302 H         1 UNK         0.0788 
     98 H98        23.4982   27.7708    1.1635 H         1 UNK         0.0788 
     99 H99        25.1172   24.1145    0.3915 H         1 UNK         0.2993 
    100 H100       25.0342   22.9132   -1.4864 H         1 UNK         0.0949 
    101 H101       25.2317   22.6349   -3.9299 H         1 UNK         0.0767 
    102 H102       24.0987   23.9308   -3.5789 H         1 UNK         0.0767 
    103 H103       25.7258   24.3151   -4.1256 H         1 UNK         0.0767 
    104 H104       27.5449   23.2969   -2.8626 H         1 UNK         0.3013 
    105 H105       26.7900   28.7756    3.2819 H         1 UNK         0.3121 
    106 H106       26.8978   31.2900    4.9126 H         1 UNK         0.0774 
    107 H107       24.5683   30.0551    3.3439 H         1 UNK         0.0815 
    108 H108       24.5342   31.5961    4.1920 H         1 UNK         0.0815 
    109 H109       24.7211   30.1040    5.0995 H         1 UNK         0.0815 
    110 H110       26.5978   29.8924    1.6042 H         1 UNK         0.2987 
    111 H111       26.4403   32.3967    0.2798 H         1 UNK         0.0949 
    112 H112       27.1798   29.6339   -0.8218 H         1 UNK         0.0806 
    113 H113       25.5484   30.2760   -0.6582 H         1 UNK         0.0806 
    114 H114       26.6792   31.0208   -1.7769 H         1 UNK         0.0806 
    115 H115       29.2607   30.4119    1.1278 H         1 UNK         0.3010 
    116 H116       31.0760   32.4207   -0.1671 H         1 UNK         0.0829 
    117 H117       31.6205   29.4655    0.4518 H         1 UNK         0.0813 
    118 H118       31.3260   30.1430   -1.1476 H         1 UNK         0.0813 
    119 H119       32.7559   30.6109   -0.2403 H         1 UNK         0.0813 
    120 H120       30.6453   30.2183    2.6193 H         1 UNK         0.3038 
    121 H121       31.2125   30.2394    4.7374 H         1 UNK         0.0769 
    122 H122       31.1933   32.3133    6.0460 H         1 UNK         0.0811 
    123 H123       31.4814   33.2933    4.6078 H         1 UNK         0.0811 
    124 H124       29.9604   32.4308    4.8114 H         1 UNK         0.0811 
    125 H125       33.1838   32.1674    5.9810 H         1 UNK         0.3204 
    126 H126       35.2934   32.3756    6.5104 H         1 UNK         0.0748 
    127 H127       37.0535   32.4709    4.7813 H         1 UNK         0.0771 
    128 H128       36.0039   31.6875    3.6123 H         1 UNK         0.0771 
    129 H129       35.6066   33.2937    4.2203 H         1 UNK         0.0771 
    130 H130       34.6332   29.2968    4.9328 H         1 UNK         0.2980 
    131 H131       36.7922   27.7525    5.7617 H         1 UNK         0.0545 
    132 H132       37.3654   26.5373    7.6316 H         1 UNK         0.3459 
    133 H133       36.5220   26.7126    9.1481 H         1 UNK         0.3459 
    134 H134       33.8647   26.8997    5.5335 H         1 UNK         0.0616 
    135 H135       35.2066   25.7891    5.6071 H         1 UNK         0.0616 
    136 H136       33.4347   27.1446    1.8008 H         1 UNK         0.0634 
    137 H137       32.9315   27.8261    3.3235 H         1 UNK         0.0634 
@<TRIPOS>BOND
     1    1    2 1    
     2    1   72 1    
     3    1   73 1    
     4    1   74 1    
     5    2    3 2    
     6    2    4 am   BACKBONE|DICT|INTERRES
     7    4    5 1    
     8    4   75 1    
     9    5    6 1    
    10    5   35 1    
    11    5   76 1    
    12    6    7 1    
    13    6   77 1    
    14    6   78 1    
    15    7    8 1    
    16    8    9 1    
    17    8   79 1    
    18    8   80 1    
    19    9   10 ar   
    20    9   14 ar   
    21   10   11 ar   
    22   10   81 1    
    23   11   12 ar   
    24   11   71 1    
    25   12   13 ar   
    26   12   82 1    
    27   13   14 ar   
    28   13   15 1    
    29   14   83 1    
    30   15   16 1    
    31   15   84 1    
    32   15   85 1    
    33   16   17 1    
    34   17   18 1    
    35   17   86 1    
    36   17   87 1    
    37   18   19 1    
    38   18   37 1    
    39   18   88 1    
    40   19   20 am   BACKBONE|DICT|INTERRES
    41   19   89 1    
    42   20   21 2    
    43   20   22 1    
    44   22   23 1    
    45   22   24 1    
    46   22   90 1    
    47   23   91 1    
    48   23   92 1    
    49   23   93 1    
    50   24   25 am   BACKBONE|DICT|INTERRES
    51   24   94 1    
    52   25   26 2    
    53   25   27 1    
    54   27   28 1    
    55   27   29 1    
    56   27   95 1    
    57   28   96 1    
    58   28   97 1    
    59   28   98 1    
    60   29   30 am   BACKBONE|DICT|INTERRES
    61   29   99 1    
    62   30   31 2    
    63   30   32 1    
    64   32   33 1    
    65   32   34 1    
    66   32  100 1    
    67   33  101 1    
    68   33  102 1    
    69   33  103 1    
    70   34   35 am   BACKBONE|DICT|INTERRES
    71   34  104 1    
    72   35   36 2    
    73   37   38 2    
    74   37   39 am   BACKBONE|DICT|INTERRES
    75   39   40 1    
    76   39  105 1    
    77   40   41 1    
    78   40   42 1    
    79   40  106 1    
    80   41  107 1    
    81   41  108 1    
    82   41  109 1    
    83   42   43 2    
    84   42   44 am   BACKBONE|DICT|INTERRES
    85   44   45 1    
    86   44  110 1    
    87   45   46 1    
    88   45   47 1    
    89   45  111 1    
    90   46  112 1    
    91   46  113 1    
    92   46  114 1    
    93   47   48 2    
    94   47   49 am   BACKBONE|DICT|INTERRES
    95   49   50 1    
    96   49  115 1    
    97   50   51 1    
    98   50   52 1    
    99   50  116 1    
   100   51  117 1    
   101   51  118 1    
   102   51  119 1    
   103   52   53 2    
   104   52   54 am   BACKBONE|DICT|INTERRES
   105   54   55 1    
   106   54  120 1    
   107   55   56 1    
   108   55   57 1    
   109   55  121 1    
   110   56  122 1    
   111   56  123 1    
   112   56  124 1    
   113   57   58 2    
   114   57   59 am   BACKBONE|DICT|INTERRES
   115   59   60 1    
   116   59  125 1    
   117   60   61 1    
   118   60   62 1    
   119   60  126 1    
   120   61  127 1    
   121   61  128 1    
   122   61  129 1    
   123   62   63 2    
   124   62   64 am   BACKBONE|DICT|INTERRES
   125   64   65 1    
   126   64  130 1    
   127   65   66 1    
   128   65   69 1    
   129   65  131 1    
   130   66   67 am   BACKBONE|DICT|INTERRES
   131   66   68 2    
   132   67  132 1    
   133   67  133 1    
   134   69   70 1    
   135   69  134 1    
   136   69  135 1    
   137   70   71 1    
   138   71  136 1    
   139   71  137 1    
@<TRIPOS>SUBSTRUCTURE
     1 UNK         1 GROUP             0       ****    0 ROOT    
