@<TRIPOS>MOLECULE
3R136
137   139    1
SMALL
USER_CHARGES


@<TRIPOS>ATOM
      1 CA         26.8918   21.3684   -1.9935 C.3       0 UNK        -0.1979 
      2 C          27.9429   22.4664   -2.0478 C.2       0 UNK         0.4864 
      3 O          27.9698   23.2376   -3.0085 O.2       0 UNK        -0.5359 
      4 N          28.8007   22.5494   -1.0205 N.am      1 UNK        -0.4318 
      5 CA         29.8557   23.5570   -0.8545 C.3       1 UNK         0.0824 
      6 C6         30.6733   23.2771    0.4269 C.3       12 UNK        -0.0944 
      7 S7         32.2867   24.1264    0.4664 S.3       12 UNK        -0.2672 
      8 C8         33.0639   23.3308    1.9133 C.3       12 UNK         0.0333 
      9 C9         32.2999   23.6340    3.1942 C.ar      12 UNK        -0.0807 
     10 C10        32.5541   24.8105    3.9033 C.ar      12 UNK        -0.0894 
     11 C11        31.8016   25.1347    5.0360 C.ar      12 UNK        -0.0804 
     12 C12        30.7979   24.2615    5.4684 C.ar      12 UNK        -0.0824 
     13 C13        30.5268   23.0870    4.7585 C.ar      12 UNK        -0.0762 
     14 C14        31.3007   22.7646    3.6411 C.ar      12 UNK        -0.0782 
     15 C15        29.3597   22.1931    5.1532 C.3       12 UNK         0.0230 
     16 S16        27.9255   22.4407    4.0476 S.3       12 UNK        -0.2608 
     17 C17        27.4331   24.1495    4.4559 C.3       12 UNK        -0.0989 
     18 CA         27.9361   25.1745    3.3902 C.3       5 UNK         0.0716 
     19 N          26.9706   25.5104    2.3391 N.am      5 UNK        -0.4135 
     20 C          25.7876   26.1187    2.5076 C.2       4 UNK         0.5031 
     21 O          25.2840   26.3165    3.6151 O.2       4 UNK        -0.5229 
     22 CA         25.0350   26.6384    1.2714 C.3       4 UNK         0.0329 
     23 CB         25.0762   28.1796    1.2403 C.3       4 UNK        -0.2001 
     24 N          25.5087   26.1156   -0.0171 N.am      4 UNK        -0.4303 
     25 C          24.7311   26.0291   -1.1097 C.2       3 UNK         0.5044 
     26 O          23.5172   26.2442   -1.0894 O.2       3 UNK        -0.5152 
     27 CA         25.3979   25.6524   -2.4542 C.3       3 UNK         0.0319 
     28 CB         24.6754   26.2739   -3.6684 C.3       3 UNK        -0.2001 
     29 N          26.8362   25.9356   -2.5148 N.am      3 UNK        -0.4354 
     30 C          27.4551   27.1146   -2.3291 C.2       2 UNK         0.4964 
     31 O          26.8591   28.1870   -2.2210 O.2       2 UNK        -0.5047 
     32 CA         28.9977   27.0894   -2.2021 C.3       2 UNK         0.0288 
     33 CB         29.5111   28.1311   -1.1848 C.3       2 UNK        -0.2113 
     34 N          29.5635   25.7649   -1.8934 N.am      2 UNK        -0.4145 
     35 C          29.2479   24.9752   -0.8540 C.2       1 UNK         0.5006 
     36 O          28.4341   25.2840    0.0217 O.2       1 UNK        -0.5103 
     37 C          28.5127   26.4675    3.9966 C.2       5 UNK         0.5055 
     38 O          29.5434   26.9406    3.5222 O.2       5 UNK        -0.5220 
     39 N          27.8468   27.0249    5.0168 N.am      6 UNK        -0.4450 
     40 CA         28.2941   28.1627    5.8281 C.3       6 UNK         0.0367 
     41 CB         27.5181   28.1528    7.1583 C.3       6 UNK        -0.1929 
     42 C          28.2269   29.5288    5.1098 C.2       6 UNK         0.5070 
     43 O          27.7116   30.4972    5.6715 O.2       6 UNK        -0.5237 
     44 N          28.7635   29.5939    3.8883 N.am      7 UNK        -0.4739 
     45 CA         29.0011   30.8248    3.1402 C.3       7 UNK         0.0276 
     46 CB         29.0209   30.4978    1.6382 C.3       7 UNK        -0.1927 
     47 C          30.3447   31.4318    3.5672 C.2       7 UNK         0.5013 
     48 O          31.3015   30.6865    3.7961 O.2       7 UNK        -0.5193 
     49 N          30.4227   32.7692    3.5942 N.am      8 UNK        -0.4253 
     50 CA         31.6283   33.5301    3.9542 C.3       8 UNK         0.0242 
     51 CB         31.2872   35.0282    4.0080 C.3       8 UNK        -0.2000 
     52 C          32.8314   33.2855    3.0226 C.2       8 UNK         0.4948 
     53 O          33.9746   33.4112    3.4613 O.2       8 UNK        -0.5275 
     54 N          32.5542   32.9247    1.7624 N.am      9 UNK        -0.4246 
     55 CA         33.5544   32.5157    0.7756 C.3       9 UNK         0.0261 
     56 CB         32.9567   32.6721   -0.6329 C.3       9 UNK        -0.1959 
     57 C          34.0596   31.0747    0.9829 C.2       9 UNK         0.5033 
     58 O          35.1359   30.7487    0.4800 O.2       9 UNK        -0.5390 
     59 N          33.2822   30.2359    1.6830 N.am      10 UNK        -0.4215 
     60 CA         33.5925   28.8282    1.9304 C.3       10 UNK         0.0240 
     61 CB         32.2982   28.0030    1.8696 C.3       10 UNK        -0.1982 
     62 C          34.3108   28.6461    3.2750 C.2       10 UNK         0.4970 
     63 O          35.3211   27.9431    3.3165 O.2       10 UNK        -0.4916 
     64 N          33.8030   29.2953    4.3310 N.am      11 UNK        -0.4279 
     65 CA         34.4132   29.3428    5.6660 C.3       11 UNK         0.1003 
     66 C          34.5109   30.8217    6.1092 C.2       11 UNK         0.5709 
     67 N          35.7159   31.3435    6.2946 N.am      11 UNK        -0.7358 
     68 O          33.5008   31.4886    6.3211 O.2       11 UNK        -0.4999 
     69 C69        33.6340   28.4991    6.7120 C.3       12 UNK        -0.0954 
     70 S70        33.6780   26.7087    6.3662 S.3       12 UNK        -0.2268 
     71 C71        31.9964   26.4800    5.7197 C.3       12 UNK         0.0203 
     72 H72        26.9947   20.7089   -2.8547 H         1 UNK         0.0888 
     73 H73        26.9786   20.7640   -1.0907 H         1 UNK         0.0888 
     74 H74        25.8934   21.8043   -2.0151 H         1 UNK         0.0888 
     75 H75        28.7032   21.8980   -0.2551 H         1 UNK         0.3017 
     76 H76        30.5215   23.4568   -1.7144 H         1 UNK         0.0873 
     77 H77        30.8745   22.2076    0.5080 H         1 UNK         0.0745 
     78 H78        30.0988   23.5458    1.3141 H         1 UNK         0.0745 
     79 H79        33.1260   22.2539    1.7494 H         1 UNK         0.0705 
     80 H80        34.0916   23.6862    2.0030 H         1 UNK         0.0705 
     81 H81        33.3160   25.4942    3.5555 H         1 UNK         0.1334 
     82 H82        30.1924   24.5226    6.3253 H         1 UNK         0.1417 
     83 H83        31.0843   21.8623    3.0856 H         1 UNK         0.1562 
     84 H84        29.0626   22.3723    6.1877 H         1 UNK         0.0748 
     85 H85        29.6690   21.1481    5.1025 H         1 UNK         0.0748 
     86 H86        27.8150   24.3720    5.4535 H         1 UNK         0.0940 
     87 H87        26.3481   24.1715    4.5577 H         1 UNK         0.0940 
     88 H88        28.7802   24.7260    2.8649 H         1 UNK         0.0703 
     89 H89        27.3592   25.4174    1.4028 H         1 UNK         0.3081 
     90 H90        23.9981   26.3268    1.4148 H         1 UNK         0.0719 
     91 H91        24.7450   28.6060    2.1884 H         1 UNK         0.0809 
     92 H92        26.0854   28.5467    1.0504 H         1 UNK         0.0809 
     93 H93        24.4246   28.5807    0.4640 H         1 UNK         0.0809 
     94 H94        26.4984   25.9143   -0.1098 H         1 UNK         0.2990 
     95 H95        25.3050   24.5687   -2.5369 H         1 UNK         0.0690 
     96 H96        25.1510   25.9819   -4.6046 H         1 UNK         0.0788 
     97 H97        24.6690   27.3632   -3.6202 H         1 UNK         0.0788 
     98 H98        23.6368   25.9446   -3.7197 H         1 UNK         0.0788 
     99 H99        27.4196   25.1111   -2.6315 H         1 UNK         0.2993 
    100 H100       29.3797   27.3676   -3.1854 H         1 UNK         0.0949 
    101 H101       29.1541   27.9199   -0.1761 H         1 UNK         0.0767 
    102 H102       30.6002   28.1496   -1.1595 H         1 UNK         0.0767 
    103 H103       29.1810   29.1379   -1.4437 H         1 UNK         0.0767 
    104 H104       30.2011   25.3984   -2.5872 H         1 UNK         0.3013 
    105 H105       26.9340   26.6471    5.2362 H         1 UNK         0.3121 
    106 H106       29.3471   28.0040    6.0669 H         1 UNK         0.0774 
    107 H107       26.4508   28.3142    7.0019 H         1 UNK         0.0815 
    108 H108       27.6425   27.2063    7.6847 H         1 UNK         0.0815 
    109 H109       27.8732   28.9386    7.8266 H         1 UNK         0.0815 
    110 H110       29.2051   28.7468    3.5355 H         1 UNK         0.2987 
    111 H111       28.1965   31.5362    3.3397 H         1 UNK         0.0949 
    112 H112       28.0813   30.0476    1.3183 H         1 UNK         0.0806 
    113 H113       29.1668   31.3982    1.0404 H         1 UNK         0.0806 
    114 H114       29.8242   29.8043    1.3870 H         1 UNK         0.0806 
    115 H115       29.5969   33.3099    3.3787 H         1 UNK         0.3010 
    116 H116       31.9276   33.2124    4.9550 H         1 UNK         0.0829 
    117 H117       30.9512   35.4021    3.0400 H         1 UNK         0.0813 
    118 H118       32.1590   35.6160    4.2994 H         1 UNK         0.0813 
    119 H119       30.5043   35.2319    4.7388 H         1 UNK         0.0813 
    120 H120       31.5863   32.8807    1.4791 H         1 UNK         0.3038 
    121 H121       34.4168   33.1813    0.8559 H         1 UNK         0.0769 
    122 H122       32.6516   33.7013   -0.8232 H         1 UNK         0.0811 
    123 H123       32.0870   32.0299   -0.7778 H         1 UNK         0.0811 
    124 H124       33.6877   32.4067   -1.3981 H         1 UNK         0.0811 
    125 H125       32.4579   30.5981    2.1484 H         1 UNK         0.3204 
    126 H126       34.2531   28.4562    1.1440 H         1 UNK         0.0748 
    127 H127       31.6073   28.2724    2.6675 H         1 UNK         0.0771 
    128 H128       31.7823   28.1431    0.9210 H         1 UNK         0.0771 
    129 H129       32.5056   26.9379    1.9619 H         1 UNK         0.0771 
    130 H130       32.9653   29.8616    4.2158 H         1 UNK         0.2980 
    131 H131       35.4297   28.9471    5.6179 H         1 UNK         0.0545 
    132 H132       36.5512   30.8029    6.1323 H         1 UNK         0.3459 
    133 H133       35.7898   32.3045    6.5890 H         1 UNK         0.3459 
    134 H134       32.5985   28.8372    6.7865 H         1 UNK         0.0616 
    135 H135       34.0673   28.6404    7.7038 H         1 UNK         0.0616 
    136 H136       31.2879   26.6062    6.5393 H         1 UNK         0.0634 
    137 H137       31.7808   27.2682    4.9974 H         1 UNK         0.0634 
@<TRIPOS>BOND
     1    1    2 1    
     2    1   72 1    
     3    1   73 1    
     4    1   74 1    
     5    2    3 2    
     6    2    4 am   BACKBONE|DICT|INTERRES
     7    4    5 1    
     8    4   75 1    
     9    5    6 1    
    10    5   35 1    
    11    5   76 1    
    12    6    7 1    
    13    6   77 1    
    14    6   78 1    
    15    7    8 1    
    16    8    9 1    
    17    8   79 1    
    18    8   80 1    
    19    9   10 ar   
    20    9   14 ar   
    21   10   11 ar   
    22   10   81 1    
    23   11   12 ar   
    24   11   71 1    
    25   12   13 ar   
    26   12   82 1    
    27   13   14 ar   
    28   13   15 1    
    29   14   83 1    
    30   15   16 1    
    31   15   84 1    
    32   15   85 1    
    33   16   17 1    
    34   17   18 1    
    35   17   86 1    
    36   17   87 1    
    37   18   19 1    
    38   18   37 1    
    39   18   88 1    
    40   19   20 am   BACKBONE|DICT|INTERRES
    41   19   89 1    
    42   20   21 2    
    43   20   22 1    
    44   22   23 1    
    45   22   24 1    
    46   22   90 1    
    47   23   91 1    
    48   23   92 1    
    49   23   93 1    
    50   24   25 am   BACKBONE|DICT|INTERRES
    51   24   94 1    
    52   25   26 2    
    53   25   27 1    
    54   27   28 1    
    55   27   29 1    
    56   27   95 1    
    57   28   96 1    
    58   28   97 1    
    59   28   98 1    
    60   29   30 am   BACKBONE|DICT|INTERRES
    61   29   99 1    
    62   30   31 2    
    63   30   32 1    
    64   32   33 1    
    65   32   34 1    
    66   32  100 1    
    67   33  101 1    
    68   33  102 1    
    69   33  103 1    
    70   34   35 am   BACKBONE|DICT|INTERRES
    71   34  104 1    
    72   35   36 2    
    73   37   38 2    
    74   37   39 am   BACKBONE|DICT|INTERRES
    75   39   40 1    
    76   39  105 1    
    77   40   41 1    
    78   40   42 1    
    79   40  106 1    
    80   41  107 1    
    81   41  108 1    
    82   41  109 1    
    83   42   43 2    
    84   42   44 am   BACKBONE|DICT|INTERRES
    85   44   45 1    
    86   44  110 1    
    87   45   46 1    
    88   45   47 1    
    89   45  111 1    
    90   46  112 1    
    91   46  113 1    
    92   46  114 1    
    93   47   48 2    
    94   47   49 am   BACKBONE|DICT|INTERRES
    95   49   50 1    
    96   49  115 1    
    97   50   51 1    
    98   50   52 1    
    99   50  116 1    
   100   51  117 1    
   101   51  118 1    
   102   51  119 1    
   103   52   53 2    
   104   52   54 am   BACKBONE|DICT|INTERRES
   105   54   55 1    
   106   54  120 1    
   107   55   56 1    
   108   55   57 1    
   109   55  121 1    
   110   56  122 1    
   111   56  123 1    
   112   56  124 1    
   113   57   58 2    
   114   57   59 am   BACKBONE|DICT|INTERRES
   115   59   60 1    
   116   59  125 1    
   117   60   61 1    
   118   60   62 1    
   119   60  126 1    
   120   61  127 1    
   121   61  128 1    
   122   61  129 1    
   123   62   63 2    
   124   62   64 am   BACKBONE|DICT|INTERRES
   125   64   65 1    
   126   64  130 1    
   127   65   66 1    
   128   65   69 1    
   129   65  131 1    
   130   66   67 am   BACKBONE|DICT|INTERRES
   131   66   68 2    
   132   67  132 1    
   133   67  133 1    
   134   69   70 1    
   135   69  134 1    
   136   69  135 1    
   137   70   71 1    
   138   71  136 1    
   139   71  137 1    
@<TRIPOS>SUBSTRUCTURE
     1 UNK         1 GROUP             0       ****    0 ROOT    
