@<TRIPOS>MOLECULE
3R136
137   139    1
SMALL
USER_CHARGES


@<TRIPOS>ATOM
      1 CA         31.0445   18.5745   -1.1772 C.3       0 UNK        -0.1979 
      2 C          30.1379   19.4847   -0.3619 C.2       0 UNK         0.4864 
      3 O          29.0526   19.0610    0.0372 O.2       0 UNK        -0.5359 
      4 N          30.5739   20.7324   -0.1277 N.am      1 UNK        -0.4318 
      5 CA         29.8936   21.7701    0.6695 C.3       1 UNK         0.0824 
      6 C6         29.7240   21.3905    2.1682 C.3       12 UNK        -0.0944 
      7 S7         31.3185   20.9786    2.9565 S.3       12 UNK        -0.2672 
      8 C8         31.1772   21.8270    4.5664 C.3       12 UNK         0.0333 
      9 C9         31.1534   23.3550    4.5030 C.ar      12 UNK        -0.0807 
     10 C10        31.8326   24.0730    3.5081 C.ar      12 UNK        -0.0894 
     11 C11        31.8228   25.4712    3.5106 C.ar      12 UNK        -0.0804 
     12 C12        31.1606   26.1517    4.5335 C.ar      12 UNK        -0.0824 
     13 C13        30.4473   25.4557    5.5075 C.ar      12 UNK        -0.0762 
     14 C14        30.4545   24.0578    5.4917 C.ar      12 UNK        -0.0782 
     15 C15        29.6514   26.2109    6.5601 C.3       12 UNK         0.0230 
     16 S16        27.9355   26.4650    6.0088 S.3       12 UNK        -0.2608 
     17 C17        27.9513   28.1425    5.2719 C.3       12 UNK        -0.0989 
     18 CA         28.3158   28.2192    3.7566 C.3       5 UNK         0.0716 
     19 N          27.7064   27.1658    2.9336 N.am      5 UNK        -0.4135 
     20 C          26.3970   26.9912    2.7057 C.2       4 UNK         0.5031 
     21 O          25.5121   27.7233    3.1544 O.2       4 UNK        -0.5229 
     22 CA         26.0249   25.7798    1.8273 C.3       4 UNK         0.0329 
     23 CB         24.5184   25.7153    1.4969 C.3       4 UNK        -0.2001 
     24 N          26.8190   25.6786    0.5959 N.am      4 UNK        -0.4303 
     25 C          26.9265   26.5964   -0.3811 C.2       3 UNK         0.5044 
     26 O          26.4176   27.7155   -0.3307 O.2       3 UNK        -0.5152 
     27 CA         27.7254   26.2092   -1.6436 C.3       3 UNK         0.0319 
     28 CB         29.1218   26.8501   -1.6278 C.3       3 UNK        -0.2001 
     29 N          27.8768   24.7650   -1.8284 N.am      3 UNK        -0.4354 
     30 C          26.8829   23.9101   -2.1085 C.2       2 UNK         0.4964 
     31 O          25.7289   24.2590   -2.3584 O.2       2 UNK        -0.5047 
     32 CA         27.2258   22.4086   -2.0795 C.3       2 UNK         0.0288 
     33 CB         27.4017   21.8688   -3.5085 C.3       2 UNK        -0.2113 
     34 N          28.4161   22.0655   -1.2891 N.am      2 UNK        -0.4145 
     35 C          28.5713   22.2619    0.0311 C.2       1 UNK         0.5006 
     36 O          27.7351   22.8445    0.7251 O.2       1 UNK        -0.5103 
     37 C          28.0686   29.6207    3.1503 C.2       5 UNK         0.5055 
     38 O          27.5987   30.5219    3.8486 O.2       5 UNK        -0.5220 
     39 N          28.3459   29.7580    1.8437 N.am      6 UNK        -0.4450 
     40 CA         28.1228   30.9630    1.0395 C.3       6 UNK         0.0367 
     41 CB         28.5074   30.6807   -0.4228 C.3       6 UNK        -0.1929 
     42 C          28.8896   32.1826    1.5762 C.2       6 UNK         0.5070 
     43 O          30.1152   32.2227    1.4703 O.2       6 UNK        -0.5237 
     44 N          28.1536   33.1380    2.1601 N.am      7 UNK        -0.4739 
     45 CA         28.5968   34.3916    2.7925 C.3       7 UNK         0.0276 
     46 CB         29.3329   35.3009    1.7885 C.3       7 UNK        -0.1927 
     47 C          29.4190   34.2217    4.0860 C.2       7 UNK         0.5013 
     48 O          29.2665   35.0376    4.9964 O.2       7 UNK        -0.5193 
     49 N          30.2584   33.1859    4.1612 N.am      8 UNK        -0.4253 
     50 CA         31.1066   32.8408    5.2952 C.3       8 UNK         0.0242 
     51 CB         32.3818   33.7069    5.2683 C.3       8 UNK        -0.2000 
     52 C          31.4542   31.3498    5.2261 C.2       8 UNK         0.4948 
     53 O          31.2483   30.7091    4.1918 O.2       8 UNK        -0.5275 
     54 N          32.0469   30.8333    6.3110 N.am      9 UNK        -0.4246 
     55 CA         32.5183   29.4478    6.4410 C.3       9 UNK         0.0261 
     56 CB         32.9616   29.1989    7.8918 C.3       9 UNK        -0.1959 
     57 C          33.6339   29.0442    5.4538 C.2       9 UNK         0.5033 
     58 O          33.8945   27.8521    5.3004 O.2       9 UNK        -0.5390 
     59 N          34.2632   30.0276    4.7984 N.am      10 UNK        -0.4215 
     60 CA         35.2204   29.8313    3.7103 C.3       10 UNK         0.0240 
     61 CB         36.1239   31.0733    3.6199 C.3       10 UNK        -0.1982 
     62 C          34.5546   29.5526    2.3470 C.2       10 UNK         0.4970 
     63 O          35.2634   29.1344    1.4311 O.2       10 UNK        -0.4916 
     64 N          33.2414   29.8070    2.2149 N.am      11 UNK        -0.4279 
     65 CA         32.4659   29.7213    0.9613 C.3       11 UNK         0.1003 
     66 C          32.8890   30.7519   -0.1333 C.2       11 UNK         0.5709 
     67 N          33.5914   31.8270    0.2063 N.am      11 UNK        -0.7358 
     68 O          32.5582   30.5956   -1.3067 O.2       11 UNK        -0.4999 
     69 C69        32.3307   28.2668    0.4176 C.3       12 UNK        -0.0954 
     70 S70        31.2740   27.2382    1.4828 S.3       12 UNK        -0.2268 
     71 C71        32.5029   26.2648    2.4066 C.3       12 UNK         0.0203 
     72 H72        31.9666   19.0745   -1.4734 H         1 UNK         0.0888 
     73 H73        31.3102   17.6926   -0.5949 H         1 UNK         0.0888 
     74 H74        30.5320   18.2449   -2.0806 H         1 UNK         0.0888 
     75 H75        31.4797   21.0019   -0.4867 H         1 UNK         0.3017 
     76 H76        30.5521   22.6397    0.6374 H         1 UNK         0.0873 
     77 H77        29.0488   20.5412    2.2829 H         1 UNK         0.0745 
     78 H78        29.2671   22.2147    2.7190 H         1 UNK         0.0745 
     79 H79        32.0225   21.5262    5.1865 H         1 UNK         0.0705 
     80 H80        30.2815   21.4556    5.0672 H         1 UNK         0.0705 
     81 H81        32.3701   23.5484    2.7309 H         1 UNK         0.1334 
     82 H82        31.1825   27.2308    4.5470 H         1 UNK         0.1417 
     83 H83        29.9124   23.5161    6.2552 H         1 UNK         0.1562 
     84 H84        30.1208   27.1643    6.8010 H         1 UNK         0.0748 
     85 H85        29.6386   25.6391    7.4892 H         1 UNK         0.0748 
     86 H86        28.6179   28.7847    5.8502 H         1 UNK         0.0940 
     87 H87        26.9491   28.5458    5.4299 H         1 UNK         0.0940 
     88 H88        29.3890   28.0733    3.6744 H         1 UNK         0.0703 
     89 H89        28.3505   26.5048    2.5237 H         1 UNK         0.3081 
     90 H90        26.2671   24.8941    2.4171 H         1 UNK         0.0719 
     91 H91        24.2797   24.8278    0.9107 H         1 UNK         0.0809 
     92 H92        24.1911   26.5885    0.9314 H         1 UNK         0.0809 
     93 H93        23.9191   25.6730    2.4072 H         1 UNK         0.0809 
     94 H94        27.2693   24.7786    0.4583 H         1 UNK         0.2990 
     95 H95        27.1785   26.6038   -2.5025 H         1 UNK         0.0690 
     96 H96        29.6353   26.7027   -2.5780 H         1 UNK         0.0788 
     97 H97        29.7467   26.4264   -0.8427 H         1 UNK         0.0788 
     98 H98        29.0650   27.9251   -1.4584 H         1 UNK         0.0788 
     99 H99        28.7962   24.3825   -1.6652 H         1 UNK         0.2993 
    100 H100       26.3749   21.8991   -1.6222 H         1 UNK         0.0949 
    101 H101       28.2585   22.3222   -4.0088 H         1 UNK         0.0767 
    102 H102       27.5433   20.7877   -3.5101 H         1 UNK         0.0767 
    103 H103       26.5205   22.0781   -4.1170 H         1 UNK         0.0767 
    104 H104       29.1573   21.5869   -1.7798 H         1 UNK         0.3013 
    105 H105       28.7235   28.9610    1.3540 H         1 UNK         0.3121 
    106 H106       27.0534   31.1819    1.0667 H         1 UNK         0.0774 
    107 H107       28.4060   31.5790   -1.0332 H         1 UNK         0.0815 
    108 H108       29.5404   30.3423   -0.5140 H         1 UNK         0.0815 
    109 H109       27.8605   29.9229   -0.8628 H         1 UNK         0.0815 
    110 H110       27.1621   32.9583    2.2454 H         1 UNK         0.2987 
    111 H111       27.6802   34.9076    3.0837 H         1 UNK         0.0949 
    112 H112       28.7278   35.4843    0.9007 H         1 UNK         0.0806 
    113 H113       29.5555   36.2708    2.2351 H         1 UNK         0.0806 
    114 H114       30.2815   34.8705    1.4659 H         1 UNK         0.0806 
    115 H115       30.3175   32.5499    3.3676 H         1 UNK         0.3010 
    116 H116       30.5553   33.0185    6.2211 H         1 UNK         0.0829 
    117 H117       32.1412   34.7685    5.3285 H         1 UNK         0.0813 
    118 H118       33.0370   33.4829    6.1108 H         1 UNK         0.0813 
    119 H119       32.9550   33.5491    4.3537 H         1 UNK         0.0813 
    120 H120       32.1905   31.4305    7.1135 H         1 UNK         0.3038 
    121 H121       31.6665   28.8010    6.2315 H         1 UNK         0.0769 
    122 H122       32.1477   29.3811    8.5939 H         1 UNK         0.0811 
    123 H123       33.8000   29.8373    8.1729 H         1 UNK         0.0811 
    124 H124       33.2791   28.1644    8.0313 H         1 UNK         0.0811 
    125 H125       34.0003   30.9785    5.0088 H         1 UNK         0.3204 
    126 H126       35.8492   28.9700    3.9462 H         1 UNK         0.0748 
    127 H127       36.8759   30.9547    2.8384 H         1 UNK         0.0771 
    128 H128       35.5540   31.9743    3.3895 H         1 UNK         0.0771 
    129 H129       36.6580   31.2436    4.5550 H         1 UNK         0.0771 
    130 H130       32.7092   30.1364    3.0144 H         1 UNK         0.2980 
    131 H131       31.4627   30.0421    1.2377 H         1 UNK         0.0545 
    132 H132       33.8481   32.4920   -0.5055 H         1 UNK         0.3459 
    133 H133       33.8427   31.9898    1.1668 H         1 UNK         0.3459 
    134 H134       31.8545   28.2602   -0.5639 H         1 UNK         0.0616 
    135 H135       33.3040   27.7953    0.2787 H         1 UNK         0.0616 
    136 H136       33.0334   25.6069    1.7168 H         1 UNK         0.0634 
    137 H137       33.2464   26.9287    2.8464 H         1 UNK         0.0634 
@<TRIPOS>BOND
     1    1    2 1    
     2    1   72 1    
     3    1   73 1    
     4    1   74 1    
     5    2    3 2    
     6    2    4 am   BACKBONE|DICT|INTERRES
     7    4    5 1    
     8    4   75 1    
     9    5    6 1    
    10    5   35 1    
    11    5   76 1    
    12    6    7 1    
    13    6   77 1    
    14    6   78 1    
    15    7    8 1    
    16    8    9 1    
    17    8   79 1    
    18    8   80 1    
    19    9   10 ar   
    20    9   14 ar   
    21   10   11 ar   
    22   10   81 1    
    23   11   12 ar   
    24   11   71 1    
    25   12   13 ar   
    26   12   82 1    
    27   13   14 ar   
    28   13   15 1    
    29   14   83 1    
    30   15   16 1    
    31   15   84 1    
    32   15   85 1    
    33   16   17 1    
    34   17   18 1    
    35   17   86 1    
    36   17   87 1    
    37   18   19 1    
    38   18   37 1    
    39   18   88 1    
    40   19   20 am   BACKBONE|DICT|INTERRES
    41   19   89 1    
    42   20   21 2    
    43   20   22 1    
    44   22   23 1    
    45   22   24 1    
    46   22   90 1    
    47   23   91 1    
    48   23   92 1    
    49   23   93 1    
    50   24   25 am   BACKBONE|DICT|INTERRES
    51   24   94 1    
    52   25   26 2    
    53   25   27 1    
    54   27   28 1    
    55   27   29 1    
    56   27   95 1    
    57   28   96 1    
    58   28   97 1    
    59   28   98 1    
    60   29   30 am   BACKBONE|DICT|INTERRES
    61   29   99 1    
    62   30   31 2    
    63   30   32 1    
    64   32   33 1    
    65   32   34 1    
    66   32  100 1    
    67   33  101 1    
    68   33  102 1    
    69   33  103 1    
    70   34   35 am   BACKBONE|DICT|INTERRES
    71   34  104 1    
    72   35   36 2    
    73   37   38 2    
    74   37   39 am   BACKBONE|DICT|INTERRES
    75   39   40 1    
    76   39  105 1    
    77   40   41 1    
    78   40   42 1    
    79   40  106 1    
    80   41  107 1    
    81   41  108 1    
    82   41  109 1    
    83   42   43 2    
    84   42   44 am   BACKBONE|DICT|INTERRES
    85   44   45 1    
    86   44  110 1    
    87   45   46 1    
    88   45   47 1    
    89   45  111 1    
    90   46  112 1    
    91   46  113 1    
    92   46  114 1    
    93   47   48 2    
    94   47   49 am   BACKBONE|DICT|INTERRES
    95   49   50 1    
    96   49  115 1    
    97   50   51 1    
    98   50   52 1    
    99   50  116 1    
   100   51  117 1    
   101   51  118 1    
   102   51  119 1    
   103   52   53 2    
   104   52   54 am   BACKBONE|DICT|INTERRES
   105   54   55 1    
   106   54  120 1    
   107   55   56 1    
   108   55   57 1    
   109   55  121 1    
   110   56  122 1    
   111   56  123 1    
   112   56  124 1    
   113   57   58 2    
   114   57   59 am   BACKBONE|DICT|INTERRES
   115   59   60 1    
   116   59  125 1    
   117   60   61 1    
   118   60   62 1    
   119   60  126 1    
   120   61  127 1    
   121   61  128 1    
   122   61  129 1    
   123   62   63 2    
   124   62   64 am   BACKBONE|DICT|INTERRES
   125   64   65 1    
   126   64  130 1    
   127   65   66 1    
   128   65   69 1    
   129   65  131 1    
   130   66   67 am   BACKBONE|DICT|INTERRES
   131   66   68 2    
   132   67  132 1    
   133   67  133 1    
   134   69   70 1    
   135   69  134 1    
   136   69  135 1    
   137   70   71 1    
   138   71  136 1    
   139   71  137 1    
@<TRIPOS>SUBSTRUCTURE
     1 UNK         1 GROUP             0       ****    0 ROOT    
