@<TRIPOS>MOLECULE
3R136
137   139    1
SMALL
USER_CHARGES


@<TRIPOS>ATOM
      1 CA         30.0716   18.9198   -2.1922 C.3       0 UNK        -0.1979 
      2 C          29.8012   20.4172   -2.2066 C.2       0 UNK         0.4864 
      3 O          29.6314   20.9958   -3.2805 O.2       0 UNK        -0.5359 
      4 N          29.7664   21.0452   -1.0232 N.am      1 UNK        -0.4318 
      5 CA         29.5146   22.4793   -0.8305 C.3       1 UNK         0.0824 
      6 C6         29.7691   22.9144    0.6315 C.3       12 UNK        -0.0944 
      7 S7         31.4903   22.6388    1.1774 S.3       12 UNK        -0.2672 
      8 C8         32.0219   24.3273    1.6467 C.3       12 UNK         0.0333 
      9 C9         31.4075   24.9028    2.9286 C.ar      12 UNK        -0.0807 
     10 C10        31.9449   26.0822    3.4544 C.ar      12 UNK        -0.0894 
     11 C11        31.4067   26.6708    4.6044 C.ar      12 UNK        -0.0804 
     12 C12        30.3029   26.0803    5.2277 C.ar      12 UNK        -0.0824 
     13 C13        29.7301   24.9226    4.6946 C.ar      12 UNK        -0.0762 
     14 C14        30.3089   24.3233    3.5750 C.ar      12 UNK        -0.0782 
     15 C15        28.4534   24.3331    5.2771 C.3       12 UNK         0.0230 
     16 S16        27.0782   24.4294    4.0753 S.3       12 UNK        -0.2608 
     17 C17        26.5309   26.1613    4.2447 C.3       12 UNK        -0.0989 
     18 CA         27.3636   27.1663    3.4111 C.3       5 UNK         0.0716 
     19 N          27.3180   26.9220    1.9636 N.am      5 UNK        -0.4135 
     20 C          28.0482   27.6106    1.0708 C.2       4 UNK         0.5031 
     21 O          28.8774   28.4623    1.3964 O.2       4 UNK        -0.5229 
     22 CA         27.8477   27.3359   -0.4322 C.3       4 UNK         0.0329 
     23 CB         29.1340   26.7651   -1.0512 C.3       4 UNK        -0.2001 
     24 N          26.7056   26.4758   -0.7673 N.am      4 UNK        -0.4303 
     25 C          25.4211   26.8551   -0.6663 C.2       3 UNK         0.5044 
     26 O          25.0787   27.9572   -0.2378 O.2       3 UNK        -0.5152 
     27 CA         24.3205   25.8777   -1.1283 C.3       3 UNK         0.0319 
     28 CB         23.5816   26.4391   -2.3555 C.3       3 UNK        -0.2001 
     29 N          24.7928   24.5293   -1.4470 N.am      3 UNK        -0.4354 
     30 C          25.1734   23.6073   -0.5540 C.2       2 UNK         0.4964 
     31 O          25.1796   23.7966    0.6626 O.2       2 UNK        -0.5047 
     32 CA         25.6581   22.2515   -1.1094 C.3       2 UNK         0.0288 
     33 CB         25.3164   22.0170   -2.5996 C.3       2 UNK        -0.2113 
     34 N          27.0946   22.0558   -0.8836 N.am      2 UNK        -0.4145 
     35 C          28.0866   22.8864   -1.2457 C.2       1 UNK         0.5006 
     36 O          27.9131   23.9389   -1.8627 O.2       1 UNK        -0.5103 
     37 C          26.9606   28.6157    3.7487 C.2       5 UNK         0.5055 
     38 O          26.0005   29.1346    3.1752 O.2       5 UNK        -0.5220 
     39 N          27.7370   29.2479    4.6403 N.am      6 UNK        -0.4450 
     40 CA         27.7192   30.6658    5.0313 C.3       6 UNK         0.0367 
     41 CB         26.3513   31.1040    5.5900 C.3       6 UNK        -0.1929 
     42 C          28.2086   31.6207    3.9257 C.2       6 UNK         0.5070 
     43 O          28.9849   32.5271    4.2251 O.2       6 UNK        -0.5237 
     44 N          27.7987   31.3898    2.6709 N.am      7 UNK        -0.4739 
     45 CA         28.2158   32.1444    1.4828 C.3       7 UNK         0.0276 
     46 CB         27.4259   31.6507    0.2606 C.3       7 UNK        -0.1927 
     47 C          29.7310   32.0788    1.2163 C.2       7 UNK         0.5013 
     48 O          30.3151   33.0781    0.7968 O.2       7 UNK        -0.5193 
     49 N          30.3445   30.9240    1.5101 N.am      8 UNK        -0.4253 
     50 CA         31.7916   30.6952    1.4698 C.3       8 UNK         0.0242 
     51 CB         32.0536   29.1832    1.3672 C.3       8 UNK        -0.2000 
     52 C          32.5742   31.3309    2.6403 C.2       8 UNK         0.4948 
     53 O          33.7994   31.1996    2.6641 O.2       8 UNK        -0.5275 
     54 N          31.8849   32.0078    3.5747 N.am      9 UNK        -0.4246 
     55 CA         32.4167   32.8260    4.6714 C.3       9 UNK         0.0261 
     56 CB         33.0033   34.1428    4.1143 C.3       9 UNK        -0.1959 
     57 C          33.3885   32.0600    5.5876 C.2       9 UNK         0.5033 
     58 O          32.9343   31.3378    6.4749 O.2       9 UNK        -0.5390 
     59 N          34.6976   32.2299    5.3549 N.am      10 UNK        -0.4215 
     60 CA         35.7898   31.5573    6.0643 C.3       10 UNK         0.0240 
     61 CB         37.1022   32.3062    5.7756 C.3       10 UNK        -0.1982 
     62 C          35.9342   30.0598    5.7255 C.2       10 UNK         0.4970 
     63 O          36.6829   29.3690    6.4178 O.2       10 UNK        -0.4916 
     64 N          35.2353   29.5909    4.6822 N.am      11 UNK        -0.4279 
     65 CA         35.1824   28.1945    4.2156 C.3       11 UNK         0.1003 
     66 C          36.4522   27.7211    3.4474 C.2       11 UNK         0.5709 
     67 N          37.3637   28.6066    3.0625 N.am      11 UNK        -0.7358 
     68 O          36.6009   26.5349    3.1631 O.2       11 UNK        -0.4999 
     69 C69        34.7295   27.1662    5.3025 C.3       12 UNK        -0.0954 
     70 S70        33.3177   27.6674    6.3528 S.3       12 UNK        -0.2268 
     71 C71        31.9865   27.9668    5.1528 C.3       12 UNK         0.0203 
     72 H72        29.2374   18.3837   -2.6441 H         1 UNK         0.0888 
     73 H73        30.9714   18.6957   -2.7645 H         1 UNK         0.0888 
     74 H74        30.2106   18.5397   -1.1802 H         1 UNK         0.0888 
     75 H75        29.9510   20.5203   -0.1799 H         1 UNK         0.3017 
     76 H76        30.2049   23.0265   -1.4766 H         1 UNK         0.0873 
     77 H77        29.5196   23.9679    0.7681 H         1 UNK         0.0745 
     78 H78        29.1103   22.3636    1.3059 H         1 UNK         0.0745 
     79 H79        31.8120   25.0060    0.8185 H         1 UNK         0.0705 
     80 H80        33.1069   24.3093    1.7600 H         1 UNK         0.0705 
     81 H81        32.7860   26.5465    2.9599 H         1 UNK         0.1334 
     82 H82        29.8697   26.5413    6.1048 H         1 UNK         0.1417 
     83 H83        29.8571   23.4189    3.2018 H         1 UNK         0.1562 
     84 H84        28.1728   24.8289    6.2076 H         1 UNK         0.0748 
     85 H85        28.6295   23.2861    5.5278 H         1 UNK         0.0748 
     86 H86        26.5555   26.4225    5.3047 H         1 UNK         0.0940 
     87 H87        25.4804   26.2120    3.9513 H         1 UNK         0.0940 
     88 H88        28.4098   27.0578    3.6870 H         1 UNK         0.0703 
     89 H89        26.6508   26.2400    1.6353 H         1 UNK         0.3081 
     90 H90        27.6682   28.3058   -0.9001 H         1 UNK         0.0719 
     91 H91        29.9700   27.4526   -0.9169 H         1 UNK         0.0809 
     92 H92        29.0223   26.5997   -2.1229 H         1 UNK         0.0809 
     93 H93        29.4185   25.8199   -0.5925 H         1 UNK         0.0809 
     94 H94        26.9231   25.5590   -1.1467 H         1 UNK         0.2990 
     95 H95        23.6028   25.7986   -0.3089 H         1 UNK         0.0690 
     96 H96        22.7496   25.7976   -2.6468 H         1 UNK         0.0788 
     97 H97        24.2461   26.5405   -3.2146 H         1 UNK         0.0788 
     98 H98        23.1667   27.4264   -2.1468 H         1 UNK         0.0788 
     99 H99        24.8606   24.2936   -2.4268 H         1 UNK         0.2993 
    100 H100       25.1411   21.4866   -0.5277 H         1 UNK         0.0949 
    101 H101       24.2461   22.1236   -2.7825 H         1 UNK         0.0767 
    102 H102       25.8411   22.7076   -3.2610 H         1 UNK         0.0767 
    103 H103       25.5904   21.0068   -2.9044 H         1 UNK         0.0767 
    104 H104       27.3445   21.2295   -0.3589 H         1 UNK         0.3013 
    105 H105       28.5068   28.7232    5.0307 H         1 UNK         0.3121 
    106 H106       28.4392   30.7480    5.8475 H         1 UNK         0.0774 
    107 H107       26.4075   32.1143    5.9972 H         1 UNK         0.0815 
    108 H108       25.5756   31.1113    4.8241 H         1 UNK         0.0815 
    109 H109       26.0225   30.4477    6.3957 H         1 UNK         0.0815 
    110 H110       27.1532   30.6185    2.5285 H         1 UNK         0.2987 
    111 H111       27.9615   33.1925    1.6550 H         1 UNK         0.0949 
    112 H112       26.3522   31.7710    0.4062 H         1 UNK         0.0806 
    113 H113       27.6969   32.2141   -0.6334 H         1 UNK         0.0806 
    114 H114       27.6190   30.5981    0.0541 H         1 UNK         0.0806 
    115 H115       29.7661   30.1217    1.7508 H         1 UNK         0.3010 
    116 H116       32.1806   31.1590    0.5610 H         1 UNK         0.0829 
    117 H117       31.6646   28.7835    0.4309 H         1 UNK         0.0813 
    118 H118       33.1196   28.9544    1.3946 H         1 UNK         0.0813 
    119 H119       31.5711   28.6386    2.1771 H         1 UNK         0.0813 
    120 H120       30.8740   32.0299    3.4953 H         1 UNK         0.3038 
    121 H121       31.5612   33.0919    5.2945 H         1 UNK         0.0769 
    122 H122       33.7972   33.9724    3.3865 H         1 UNK         0.0811 
    123 H123       33.4102   34.7638    4.9138 H         1 UNK         0.0811 
    124 H124       32.2300   34.7298    3.6181 H         1 UNK         0.0811 
    125 H125       34.9595   32.8138    4.5734 H         1 UNK         0.3204 
    126 H126       35.5863   31.6233    7.1351 H         1 UNK         0.0748 
    127 H127       37.9363   31.8598    6.3192 H         1 UNK         0.0771 
    128 H128       37.3555   32.2838    4.7149 H         1 UNK         0.0771 
    129 H129       37.0402   33.3498    6.0850 H         1 UNK         0.0771 
    130 H130       34.6978   30.2499    4.1266 H         1 UNK         0.2980 
    131 H131       34.4132   28.2026    3.4454 H         1 UNK         0.0545 
    132 H132       37.2459   29.5843    3.2731 H         1 UNK         0.3459 
    133 H133       38.1757   28.2913    2.5558 H         1 UNK         0.3459 
    134 H134       35.5608   26.9492    5.9750 H         1 UNK         0.0616 
    135 H135       34.4766   26.2126    4.8369 H         1 UNK         0.0616 
    136 H136       31.2030   28.5387    5.6518 H         1 UNK         0.0634 
    137 H137       32.3469   28.6084    4.3507 H         1 UNK         0.0634 
@<TRIPOS>BOND
     1    1    2 1    
     2    1   72 1    
     3    1   73 1    
     4    1   74 1    
     5    2    3 2    
     6    2    4 am   BACKBONE|DICT|INTERRES
     7    4    5 1    
     8    4   75 1    
     9    5    6 1    
    10    5   35 1    
    11    5   76 1    
    12    6    7 1    
    13    6   77 1    
    14    6   78 1    
    15    7    8 1    
    16    8    9 1    
    17    8   79 1    
    18    8   80 1    
    19    9   10 ar   
    20    9   14 ar   
    21   10   11 ar   
    22   10   81 1    
    23   11   12 ar   
    24   11   71 1    
    25   12   13 ar   
    26   12   82 1    
    27   13   14 ar   
    28   13   15 1    
    29   14   83 1    
    30   15   16 1    
    31   15   84 1    
    32   15   85 1    
    33   16   17 1    
    34   17   18 1    
    35   17   86 1    
    36   17   87 1    
    37   18   19 1    
    38   18   37 1    
    39   18   88 1    
    40   19   20 am   BACKBONE|DICT|INTERRES
    41   19   89 1    
    42   20   21 2    
    43   20   22 1    
    44   22   23 1    
    45   22   24 1    
    46   22   90 1    
    47   23   91 1    
    48   23   92 1    
    49   23   93 1    
    50   24   25 am   BACKBONE|DICT|INTERRES
    51   24   94 1    
    52   25   26 2    
    53   25   27 1    
    54   27   28 1    
    55   27   29 1    
    56   27   95 1    
    57   28   96 1    
    58   28   97 1    
    59   28   98 1    
    60   29   30 am   BACKBONE|DICT|INTERRES
    61   29   99 1    
    62   30   31 2    
    63   30   32 1    
    64   32   33 1    
    65   32   34 1    
    66   32  100 1    
    67   33  101 1    
    68   33  102 1    
    69   33  103 1    
    70   34   35 am   BACKBONE|DICT|INTERRES
    71   34  104 1    
    72   35   36 2    
    73   37   38 2    
    74   37   39 am   BACKBONE|DICT|INTERRES
    75   39   40 1    
    76   39  105 1    
    77   40   41 1    
    78   40   42 1    
    79   40  106 1    
    80   41  107 1    
    81   41  108 1    
    82   41  109 1    
    83   42   43 2    
    84   42   44 am   BACKBONE|DICT|INTERRES
    85   44   45 1    
    86   44  110 1    
    87   45   46 1    
    88   45   47 1    
    89   45  111 1    
    90   46  112 1    
    91   46  113 1    
    92   46  114 1    
    93   47   48 2    
    94   47   49 am   BACKBONE|DICT|INTERRES
    95   49   50 1    
    96   49  115 1    
    97   50   51 1    
    98   50   52 1    
    99   50  116 1    
   100   51  117 1    
   101   51  118 1    
   102   51  119 1    
   103   52   53 2    
   104   52   54 am   BACKBONE|DICT|INTERRES
   105   54   55 1    
   106   54  120 1    
   107   55   56 1    
   108   55   57 1    
   109   55  121 1    
   110   56  122 1    
   111   56  123 1    
   112   56  124 1    
   113   57   58 2    
   114   57   59 am   BACKBONE|DICT|INTERRES
   115   59   60 1    
   116   59  125 1    
   117   60   61 1    
   118   60   62 1    
   119   60  126 1    
   120   61  127 1    
   121   61  128 1    
   122   61  129 1    
   123   62   63 2    
   124   62   64 am   BACKBONE|DICT|INTERRES
   125   64   65 1    
   126   64  130 1    
   127   65   66 1    
   128   65   69 1    
   129   65  131 1    
   130   66   67 am   BACKBONE|DICT|INTERRES
   131   66   68 2    
   132   67  132 1    
   133   67  133 1    
   134   69   70 1    
   135   69  134 1    
   136   69  135 1    
   137   70   71 1    
   138   71  136 1    
   139   71  137 1    
@<TRIPOS>SUBSTRUCTURE
     1 UNK         1 GROUP             0       ****    0 ROOT    
