@<TRIPOS>MOLECULE
3R136
137   139    1
SMALL
USER_CHARGES


@<TRIPOS>ATOM
      1 CA         32.8670   23.4435   -3.2275 C.3       0 UNK        -0.1979 
      2 C          32.8803   24.3487   -2.0047 C.2       0 UNK         0.4864 
      3 O          33.8896   25.0034   -1.7428 O.2       0 UNK        -0.5359 
      4 N          31.7684   24.3813   -1.2577 N.am      1 UNK        -0.4318 
      5 CA         31.5684   25.2030   -0.0576 C.3       1 UNK         0.0824 
      6 C6         30.2533   24.8859    0.7009 C.3       12 UNK        -0.0944 
      7 S7         30.0177   23.1132    1.0563 S.3       12 UNK        -0.2672 
      8 C8         31.0346   22.8803    2.5509 C.3       12 UNK         0.0333 
      9 C9         30.5196   23.6728    3.7451 C.ar      12 UNK        -0.0807 
     10 C10        31.2428   24.7663    4.2293 C.ar      12 UNK        -0.0894 
     11 C11        30.7904   25.4831    5.3406 C.ar      12 UNK        -0.0804 
     12 C12        29.6011   25.1030    5.9690 C.ar      12 UNK        -0.0824 
     13 C13        28.8705   24.0081    5.4961 C.ar      12 UNK        -0.0762 
     14 C14        29.3350   23.2967    4.3849 C.ar      12 UNK        -0.0782 
     15 C15        27.5931   23.5719    6.1971 C.3       12 UNK         0.0230 
     16 S16        26.1091   24.0446    5.2567 S.3       12 UNK        -0.2608 
     17 C17        26.0362   25.8486    5.5349 C.3       12 UNK        -0.0989 
     18 CA         26.5230   26.6802    4.3204 C.3       5 UNK         0.0716 
     19 N          25.8852   26.2446    3.0697 N.am      5 UNK        -0.4135 
     20 C          26.0633   26.7629    1.8472 C.2       4 UNK         0.5031 
     21 O          26.6994   27.7942    1.6274 O.2       4 UNK        -0.5229 
     22 CA         25.4216   25.9654    0.6970 C.3       4 UNK         0.0329 
     23 CB         23.8798   25.9686    0.7879 C.3       4 UNK        -0.2001 
     24 N          25.8888   26.3796   -0.6337 N.am      4 UNK        -0.4303 
     25 C          25.6132   27.5081   -1.3069 C.2       3 UNK         0.5044 
     26 O          24.8357   28.3810   -0.9173 O.2       3 UNK        -0.5152 
     27 CA         26.3010   27.6489   -2.6819 C.3       3 UNK         0.0319 
     28 CB         26.2338   29.0809   -3.2581 C.3       3 UNK        -0.2001 
     29 N          27.6759   27.1246   -2.7030 N.am      3 UNK        -0.4354 
     30 C          28.7394   27.6109   -2.0441 C.2       2 UNK         0.4964 
     31 O          28.7183   28.6168   -1.3335 O.2       2 UNK        -0.5047 
     32 CA         30.0533   26.8333   -2.2298 C.3       2 UNK         0.0288 
     33 CB         30.5837   26.9935   -3.6663 C.3       2 UNK        -0.2113 
     34 N          31.0678   27.3440   -1.3030 N.am      2 UNK        -0.4145 
     35 C          31.7093   26.7269   -0.2969 C.2       1 UNK         0.5006 
     36 O          32.4285   27.3684    0.4714 O.2       1 UNK        -0.5103 
     37 C          26.3697   28.1854    4.6272 C.2       5 UNK         0.5055 
     38 O          27.2826   28.7809    5.1991 O.2       5 UNK        -0.5220 
     39 N          25.2266   28.7705    4.2422 N.am      6 UNK        -0.4450 
     40 CA         24.8966   30.1824    4.4491 C.3       6 UNK         0.0367 
     41 CB         23.3982   30.3921    4.1760 C.3       6 UNK        -0.1929 
     42 C          25.7343   31.1574    3.6008 C.2       6 UNK         0.5070 
     43 O          25.9055   32.3043    4.0151 O.2       6 UNK        -0.5237 
     44 N          26.2254   30.7058    2.4391 N.am      7 UNK        -0.4739 
     45 CA         27.0197   31.5085    1.5015 C.3       7 UNK         0.0276 
     46 CB         26.3487   31.4449    0.1197 C.3       7 UNK        -0.1927 
     47 C          28.4787   31.0288    1.4079 C.2       7 UNK         0.5013 
     48 O          29.2547   31.6269    0.6600 O.2       7 UNK        -0.5193 
     49 N          28.8177   29.9565    2.1355 N.am      8 UNK        -0.4253 
     50 CA         30.0934   29.2500    2.0688 C.3       8 UNK         0.0242 
     51 CB         30.0117   27.9928    2.9442 C.3       8 UNK        -0.2000 
     52 C          31.3039   30.1065    2.4715 C.2       8 UNK         0.4948 
     53 O          31.2067   30.9294    3.3852 O.2       8 UNK        -0.5275 
     54 N          32.4293   29.8494    1.7978 N.am      9 UNK        -0.4246 
     55 CA         33.7239   30.4933    2.0181 C.3       9 UNK         0.0261 
     56 CB         34.1753   31.1658    0.7112 C.3       9 UNK        -0.1959 
     57 C          34.7903   29.4952    2.4959 C.2       9 UNK         0.5033 
     58 O          35.7774   29.9286    3.0917 O.2       9 UNK        -0.5390 
     59 N          34.5889   28.1881    2.2554 N.am      10 UNK        -0.4215 
     60 CA         35.5297   27.1093    2.5897 C.3       10 UNK         0.0240 
     61 CB         34.9903   25.7805    2.0358 C.3       10 UNK        -0.1982 
     62 C          35.8680   26.9739    4.0879 C.2       10 UNK         0.4970 
     63 O          36.9285   26.4388    4.4137 O.2       10 UNK        -0.4916 
     64 N          34.9841   27.4699    4.9626 N.am      11 UNK        -0.4279 
     65 CA         35.2104   27.5803    6.4123 C.3       11 UNK         0.1003 
     66 C          36.1445   28.7583    6.8224 C.2       11 UNK         0.5709 
     67 N          36.5320   29.6607    5.9273 N.am      11 UNK        -0.7358 
     68 O          36.5382   28.8488    7.9829 O.2       11 UNK        -0.4999 
     69 C69        33.8736   27.6232    7.1998 C.3       12 UNK        -0.0954 
     70 S70        32.9010   26.0949    6.9952 S.3       12 UNK        -0.2268 
     71 C71        31.5980   26.6596    5.8633 C.3       12 UNK         0.0203 
     72 H72        31.9165   22.9222   -3.3398 H         1 UNK         0.0888 
     73 H73        33.0399   24.0302   -4.1294 H         1 UNK         0.0888 
     74 H74        33.6564   22.6964   -3.1498 H         1 UNK         0.0888 
     75 H75        30.9939   23.7814   -1.5024 H         1 UNK         0.3017 
     76 H76        32.3867   24.9340    0.6126 H         1 UNK         0.0873 
     77 H77        30.2159   25.4337    1.6413 H         1 UNK         0.0745 
     78 H78        29.3823   25.2209    0.1369 H         1 UNK         0.0745 
     79 H79        31.0424   21.8195    2.8054 H         1 UNK         0.0705 
     80 H80        32.0691   23.1435    2.3255 H         1 UNK         0.0705 
     81 H81        32.1661   25.0565    3.7500 H         1 UNK         0.1334 
     82 H82        29.2520   25.6528    6.8324 H         1 UNK         0.1417 
     83 H83        28.7732   22.4488    4.0167 H         1 UNK         0.1562 
     84 H84        27.5379   23.9828    7.2064 H         1 UNK         0.0748 
     85 H85        27.6016   22.4872    6.3139 H         1 UNK         0.0748 
     86 H86        26.6147   26.1009    6.4259 H         1 UNK         0.0940 
     87 H87        24.9999   26.0962    5.7746 H         1 UNK         0.0940 
     88 H88        27.5910   26.4925    4.1967 H         1 UNK         0.0703 
     89 H89        25.3540   25.3893    3.1513 H         1 UNK         0.3081 
     90 H90        25.7581   24.9334    0.8099 H         1 UNK         0.0719 
     91 H91        23.4732   26.9803    0.8079 H         1 UNK         0.0809 
     92 H92        23.4318   25.4452   -0.0567 H         1 UNK         0.0809 
     93 H93        23.5347   25.4675    1.6927 H         1 UNK         0.0809 
     94 H94        26.5527   25.7515   -1.0620 H         1 UNK         0.2990 
     95 H95        25.7297   27.0099   -3.3570 H         1 UNK         0.0690 
     96 H96        26.6930   29.1326   -4.2451 H         1 UNK         0.0788 
     97 H97        26.7376   29.8035   -2.6163 H         1 UNK         0.0788 
     98 H98        25.1999   29.4110   -3.3656 H         1 UNK         0.0788 
     99 H99        27.8099   26.3032   -3.2771 H         1 UNK         0.2993 
    100 H100       29.8247   25.7851   -2.0522 H         1 UNK         0.0949 
    101 H101       31.5311   26.4712   -3.7996 H         1 UNK         0.0767 
    102 H102       29.8870   26.5839   -4.3985 H         1 UNK         0.0767 
    103 H103       30.7457   28.0419   -3.9209 H         1 UNK         0.0767 
    104 H104       31.1743   28.3462   -1.3595 H         1 UNK         0.3013 
    105 H105       24.5371   28.2062    3.7673 H         1 UNK         0.3121 
    106 H106       25.0874   30.4197    5.4981 H         1 UNK         0.0774 
    107 H107       23.1384   30.1530    3.1439 H         1 UNK         0.0815 
    108 H108       23.1116   31.4302    4.3511 H         1 UNK         0.0815 
    109 H109       22.7835   29.7745    4.8310 H         1 UNK         0.0815 
    110 H110       26.0744   29.7363    2.1761 H         1 UNK         0.2987 
    111 H111       27.0503   32.5537    1.8165 H         1 UNK         0.0949 
    112 H112       25.3095   31.7709    0.1623 H         1 UNK         0.0806 
    113 H113       26.3684   30.4306   -0.2790 H         1 UNK         0.0806 
    114 H114       26.8625   32.0855   -0.5981 H         1 UNK         0.0806 
    115 H115       28.1031   29.5394    2.7141 H         1 UNK         0.3010 
    116 H116       30.2162   28.9427    1.0295 H         1 UNK         0.0829 
    117 H117       29.8328   28.2430    3.9907 H         1 UNK         0.0813 
    118 H118       30.9389   27.4224    2.8931 H         1 UNK         0.0813 
    119 H119       29.2087   27.3350    2.6149 H         1 UNK         0.0813 
    120 H120       32.4096   29.1008    1.1095 H         1 UNK         0.3038 
    121 H121       33.6380   31.2637    2.7874 H         1 UNK         0.0769 
    122 H122       34.2911   30.4426   -0.0973 H         1 UNK         0.0811 
    123 H123       35.1349   31.6685    0.8409 H         1 UNK         0.0811 
    124 H124       33.4570   31.9190    0.3867 H         1 UNK         0.0811 
    125 H125       33.7716   27.9096    1.7201 H         1 UNK         0.3204 
    126 H126       36.4670   27.3326    2.0759 H         1 UNK         0.0748 
    127 H127       35.6749   24.9583    2.2491 H         1 UNK         0.0771 
    128 H128       34.0262   25.5248    2.4731 H         1 UNK         0.0771 
    129 H129       34.8672   25.8231    0.9530 H         1 UNK         0.0771 
    130 H130       34.1514   27.9101    4.6057 H         1 UNK         0.2980 
    131 H131       35.7371   26.6780    6.7293 H         1 UNK         0.0545 
    132 H132       37.1409   30.4072    6.2215 H         1 UNK         0.3459 
    133 H133       36.2309   29.6147    4.9586 H         1 UNK         0.3459 
    134 H134       33.2779   28.4895    6.9063 H         1 UNK         0.0616 
    135 H135       34.0621   27.7348    8.2692 H         1 UNK         0.0616 
    136 H136       32.0510   27.1968    5.0298 H         1 UNK         0.0634 
    137 H137       30.9508   27.3714    6.3781 H         1 UNK         0.0634 
@<TRIPOS>BOND
     1    1    2 1    
     2    1   72 1    
     3    1   73 1    
     4    1   74 1    
     5    2    3 2    
     6    2    4 am   BACKBONE|DICT|INTERRES
     7    4    5 1    
     8    4   75 1    
     9    5    6 1    
    10    5   35 1    
    11    5   76 1    
    12    6    7 1    
    13    6   77 1    
    14    6   78 1    
    15    7    8 1    
    16    8    9 1    
    17    8   79 1    
    18    8   80 1    
    19    9   10 ar   
    20    9   14 ar   
    21   10   11 ar   
    22   10   81 1    
    23   11   12 ar   
    24   11   71 1    
    25   12   13 ar   
    26   12   82 1    
    27   13   14 ar   
    28   13   15 1    
    29   14   83 1    
    30   15   16 1    
    31   15   84 1    
    32   15   85 1    
    33   16   17 1    
    34   17   18 1    
    35   17   86 1    
    36   17   87 1    
    37   18   19 1    
    38   18   37 1    
    39   18   88 1    
    40   19   20 am   BACKBONE|DICT|INTERRES
    41   19   89 1    
    42   20   21 2    
    43   20   22 1    
    44   22   23 1    
    45   22   24 1    
    46   22   90 1    
    47   23   91 1    
    48   23   92 1    
    49   23   93 1    
    50   24   25 am   BACKBONE|DICT|INTERRES
    51   24   94 1    
    52   25   26 2    
    53   25   27 1    
    54   27   28 1    
    55   27   29 1    
    56   27   95 1    
    57   28   96 1    
    58   28   97 1    
    59   28   98 1    
    60   29   30 am   BACKBONE|DICT|INTERRES
    61   29   99 1    
    62   30   31 2    
    63   30   32 1    
    64   32   33 1    
    65   32   34 1    
    66   32  100 1    
    67   33  101 1    
    68   33  102 1    
    69   33  103 1    
    70   34   35 am   BACKBONE|DICT|INTERRES
    71   34  104 1    
    72   35   36 2    
    73   37   38 2    
    74   37   39 am   BACKBONE|DICT|INTERRES
    75   39   40 1    
    76   39  105 1    
    77   40   41 1    
    78   40   42 1    
    79   40  106 1    
    80   41  107 1    
    81   41  108 1    
    82   41  109 1    
    83   42   43 2    
    84   42   44 am   BACKBONE|DICT|INTERRES
    85   44   45 1    
    86   44  110 1    
    87   45   46 1    
    88   45   47 1    
    89   45  111 1    
    90   46  112 1    
    91   46  113 1    
    92   46  114 1    
    93   47   48 2    
    94   47   49 am   BACKBONE|DICT|INTERRES
    95   49   50 1    
    96   49  115 1    
    97   50   51 1    
    98   50   52 1    
    99   50  116 1    
   100   51  117 1    
   101   51  118 1    
   102   51  119 1    
   103   52   53 2    
   104   52   54 am   BACKBONE|DICT|INTERRES
   105   54   55 1    
   106   54  120 1    
   107   55   56 1    
   108   55   57 1    
   109   55  121 1    
   110   56  122 1    
   111   56  123 1    
   112   56  124 1    
   113   57   58 2    
   114   57   59 am   BACKBONE|DICT|INTERRES
   115   59   60 1    
   116   59  125 1    
   117   60   61 1    
   118   60   62 1    
   119   60  126 1    
   120   61  127 1    
   121   61  128 1    
   122   61  129 1    
   123   62   63 2    
   124   62   64 am   BACKBONE|DICT|INTERRES
   125   64   65 1    
   126   64  130 1    
   127   65   66 1    
   128   65   69 1    
   129   65  131 1    
   130   66   67 am   BACKBONE|DICT|INTERRES
   131   66   68 2    
   132   67  132 1    
   133   67  133 1    
   134   69   70 1    
   135   69  134 1    
   136   69  135 1    
   137   70   71 1    
   138   71  136 1    
   139   71  137 1    
@<TRIPOS>SUBSTRUCTURE
     1 UNK         1 GROUP             0       ****    0 ROOT    
