@<TRIPOS>MOLECULE
3R136
137   139    1
SMALL
USER_CHARGES


@<TRIPOS>ATOM
      1 CA         31.4126   19.2243   -3.1462 C.3       0 UNK        -0.1979 
      2 C          31.0438   20.6607   -3.4877 C.2       0 UNK         0.4864 
      3 O          30.6181   20.9318   -4.6122 O.2       0 UNK        -0.5359 
      4 N          31.2135   21.5813   -2.5305 N.am      1 UNK        -0.4318 
      5 CA         30.8458   22.9958   -2.6474 C.3       1 UNK         0.0824 
      6 C6         31.7111   23.8839   -1.7140 C.3       12 UNK        -0.0944 
      7 S7         31.5892   23.4689    0.0605 S.3       12 UNK        -0.2672 
      8 C8         30.9419   25.0324    0.7226 C.3       12 UNK         0.0333 
      9 C9         30.7078   24.9410    2.2205 C.ar      12 UNK        -0.0807 
     10 C10        31.6931   25.3773    3.1090 C.ar      12 UNK        -0.0894 
     11 C11        31.4881   25.3013    4.4889 C.ar      12 UNK        -0.0804 
     12 C12        30.2868   24.7825    4.9795 C.ar      12 UNK        -0.0824 
     13 C13        29.2957   24.3351    4.1000 C.ar      12 UNK        -0.0762 
     14 C14        29.5107   24.4188    2.7198 C.ar      12 UNK        -0.0782 
     15 C15        28.0026   23.7438    4.6445 C.3       12 UNK         0.0230 
     16 S16        26.5479   24.7631    4.2473 S.3       12 UNK        -0.2608 
     17 C17        26.9473   26.3469    5.0652 C.3       12 UNK        -0.0989 
     18 CA         27.4794   27.4042    4.0663 C.3       5 UNK         0.0716 
     19 N          26.5488   27.6293    2.9577 N.am      5 UNK        -0.4135 
     20 C          26.7723   28.4089    1.8947 C.2       4 UNK         0.5031 
     21 O          27.8248   29.0264    1.7168 O.2       4 UNK        -0.5229 
     22 CA         25.6381   28.4829    0.8516 C.3       4 UNK         0.0329 
     23 CB         25.9148   29.5127   -0.2597 C.3       4 UNK        -0.2001 
     24 N          25.3992   27.1808    0.2279 N.am      4 UNK        -0.4303 
     25 C          24.7676   26.1412    0.7900 C.2       3 UNK         0.5044 
     26 O          24.2350   26.1996    1.8996 O.2       3 UNK        -0.5152 
     27 CA         24.7127   24.8173   -0.0022 C.3       3 UNK         0.0319 
     28 CB         23.2590   24.4564   -0.3522 C.3       3 UNK        -0.2001 
     29 N          25.5120   24.8061   -1.2347 N.am      3 UNK        -0.4354 
     30 C          26.8509   24.8107   -1.2888 C.2       2 UNK         0.4964 
     31 O          27.5726   24.8467   -0.2924 O.2       2 UNK        -0.5047 
     32 CA         27.4639   24.8604   -2.7010 C.3       2 UNK         0.0288 
     33 CB         27.3638   26.2869   -3.2710 C.3       2 UNK        -0.2113 
     34 N          28.8668   24.4376   -2.7554 N.am      2 UNK        -0.4145 
     35 C          29.3235   23.2105   -2.4665 C.2       1 UNK         0.5006 
     36 O          28.5976   22.2795   -2.1023 O.2       1 UNK        -0.5103 
     37 C          27.8048   28.7285    4.7843 C.2       5 UNK         0.5055 
     38 O          26.8872   29.5018    5.0695 O.2       5 UNK        -0.5220 
     39 N          29.1004   28.9651    5.0361 N.am      6 UNK        -0.4450 
     40 CA         29.6844   30.1948    5.5939 C.3       6 UNK         0.0367 
     41 CB         29.1445   30.4872    7.0105 C.3       6 UNK        -0.1929 
     42 C          29.6000   31.4229    4.6591 C.2       6 UNK         0.5070 
     43 O          29.8366   32.5425    5.1166 O.2       6 UNK        -0.5237 
     44 N          29.2962   31.2054    3.3718 N.am      7 UNK        -0.4739 
     45 CA         29.3243   32.2205    2.3160 C.3       7 UNK         0.0276 
     46 CB         27.8906   32.5977    1.9125 C.3       7 UNK        -0.1927 
     47 C          30.1411   31.7319    1.1108 C.2       7 UNK         0.5013 
     48 O          30.9337   32.5045    0.5714 O.2       7 UNK        -0.5193 
     49 N          29.9735   30.4549    0.7315 N.am      8 UNK        -0.4253 
     50 CA         30.7584   29.7657   -0.3008 C.3       8 UNK         0.0242 
     51 CB         30.1025   28.4090   -0.6082 C.3       8 UNK        -0.2000 
     52 C          32.2405   29.5735    0.0762 C.2       8 UNK         0.4948 
     53 O          33.0815   29.4608   -0.8164 O.2       8 UNK        -0.5275 
     54 N          32.5321   29.5599    1.3802 N.am      9 UNK        -0.4246 
     55 CA         33.8622   29.6079    1.9719 C.3       9 UNK         0.0261 
     56 CB         34.3491   28.1837    2.2866 C.3       9 UNK        -0.1959 
     57 C          33.7388   30.4339    3.2547 C.2       9 UNK         0.5033 
     58 O          32.6577   30.4679    3.8479 O.2       9 UNK        -0.5390 
     59 N          34.8427   31.0465    3.6962 N.am      10 UNK        -0.4215 
     60 CA         34.9164   31.8917    4.8961 C.3       10 UNK         0.0240 
     61 CB         36.0999   32.8668    4.7437 C.3       10 UNK        -0.1982 
     62 C          34.9765   31.0914    6.2177 C.2       10 UNK         0.4970 
     63 O          35.6947   31.4849    7.1391 O.2       10 UNK        -0.4916 
     64 N          34.2393   29.9789    6.2866 N.am      11 UNK        -0.4279 
     65 CA         34.0797   29.1316    7.4735 C.3       11 UNK         0.1003 
     66 C          33.0812   29.7196    8.5111 C.2       11 UNK         0.5709 
     67 N          33.0347   29.1573    9.7116 N.am      11 UNK        -0.7358 
     68 O          32.3498   30.6725    8.2483 O.2       11 UNK        -0.4999 
     69 C69        33.7608   27.6641    7.0796 C.3       12 UNK        -0.0954 
     70 S70        32.3067   27.4637    5.9954 S.3       12 UNK        -0.2268 
     71 C71        32.5747   25.7531    5.4496 C.3       12 UNK         0.0203 
     72 H72        31.7873   19.1312   -2.1269 H         1 UNK         0.0888 
     73 H73        30.5399   18.5795   -3.2465 H         1 UNK         0.0888 
     74 H74        32.1843   18.8629   -3.8253 H         1 UNK         0.0888 
     75 H75        31.5332   21.2991   -1.6146 H         1 UNK         0.3017 
     76 H76        31.0711   23.3057   -3.6706 H         1 UNK         0.0873 
     77 H77        32.7599   23.7812   -1.9975 H         1 UNK         0.0745 
     78 H78        31.4821   24.9400   -1.8664 H         1 UNK         0.0745 
     79 H79        30.0138   25.2896    0.2141 H         1 UNK         0.0705 
     80 H80        31.6470   25.8353    0.5005 H         1 UNK         0.0705 
     81 H81        32.6249   25.7639    2.7227 H         1 UNK         0.1334 
     82 H82        30.1307   24.7192    6.0479 H         1 UNK         0.1417 
     83 H83        28.7463   24.0781    2.0335 H         1 UNK         0.1562 
     84 H84        28.0577   23.6089    5.7259 H         1 UNK         0.0748 
     85 H85        27.8605   22.7489    4.2203 H         1 UNK         0.0748 
     86 H86        27.6712   26.1698    5.8630 H         1 UNK         0.0940 
     87 H87        26.0413   26.7085    5.5557 H         1 UNK         0.0940 
     88 H88        28.4018   27.0234    3.6232 H         1 UNK         0.0703 
     89 H89        25.6754   27.1142    2.9908 H         1 UNK         0.3081 
     90 H90        24.7313   28.7928    1.3756 H         1 UNK         0.0719 
     91 H91        26.8273   29.2834   -0.8103 H         1 UNK         0.0809 
     92 H92        25.0939   29.5530   -0.9757 H         1 UNK         0.0809 
     93 H93        26.0244   30.5144    0.1537 H         1 UNK         0.0809 
     94 H94        25.8327   27.0293   -0.6699 H         1 UNK         0.2990 
     95 H95        25.1064   24.0413    0.6579 H         1 UNK         0.0690 
     96 H96        23.1969   23.4824   -0.8382 H         1 UNK         0.0788 
     97 H97        22.8087   25.1948   -1.0169 H         1 UNK         0.0788 
     98 H98        22.6403   24.4061    0.5450 H         1 UNK         0.0788 
     99 H99        24.9924   24.8015   -2.1013 H         1 UNK         0.2993 
    100 H100       26.8930   24.1828   -3.3399 H         1 UNK         0.0949 
    101 H101       26.3294   26.6315   -3.3043 H         1 UNK         0.0767 
    102 H102       27.9264   27.0017   -2.6690 H         1 UNK         0.0767 
    103 H103       27.7464   26.3344   -4.2909 H         1 UNK         0.0767 
    104 H104       29.5297   25.1451   -3.0342 H         1 UNK         0.3013 
    105 H105       29.7764   28.2599    4.7728 H         1 UNK         0.3121 
    106 H106       30.7505   29.9931    5.7006 H         1 UNK         0.0774 
    107 H107       29.7062   31.2955    7.4800 H         1 UNK         0.0815 
    108 H108       28.0975   30.7896    6.9969 H         1 UNK         0.0815 
    109 H109       29.2391   29.6155    7.6578 H         1 UNK         0.0815 
    110 H110       29.0678   30.2629    3.0834 H         1 UNK         0.2987 
    111 H111       29.8210   33.1231    2.6794 H         1 UNK         0.0949 
    112 H112       27.8883   33.3078    1.0844 H         1 UNK         0.0806 
    113 H113       27.3184   31.7254    1.6020 H         1 UNK         0.0806 
    114 H114       27.3598   33.0636    2.7428 H         1 UNK         0.0806 
    115 H115       29.2251   29.9096    1.1596 H         1 UNK         0.3010 
    116 H116       30.7307   30.3749   -1.2065 H         1 UNK         0.0829 
    117 H117       29.1022   28.5390   -1.0191 H         1 UNK         0.0813 
    118 H118       30.6821   27.8444   -1.3398 H         1 UNK         0.0813 
    119 H119       30.0141   27.7961    0.2892 H         1 UNK         0.0813 
    120 H120       31.7896   29.7202    2.0501 H         1 UNK         0.3038 
    121 H121       34.5558   30.1032    1.2889 H         1 UNK         0.0769 
    122 H122       35.3801   28.1932    2.6417 H         1 UNK         0.0811 
    123 H123       34.3140   27.5445    1.4041 H         1 UNK         0.0811 
    124 H124       33.7434   27.7205    3.0656 H         1 UNK         0.0811 
    125 H125       35.7032   30.9266    3.1804 H         1 UNK         0.3204 
    126 H126       34.0046   32.4914    4.9452 H         1 UNK         0.0748 
    127 H127       36.1362   33.5754    5.5724 H         1 UNK         0.0771 
    128 H128       37.0551   32.3406    4.7213 H         1 UNK         0.0771 
    129 H129       36.0167   33.4527    3.8281 H         1 UNK         0.0771 
    130 H130       33.6092   29.7835    5.5170 H         1 UNK         0.2980 
    131 H131       35.0459   29.1129    7.9816 H         1 UNK         0.0545 
    132 H132       33.6277   28.3772    9.9477 H         1 UNK         0.3459 
    133 H133       32.3930   29.5240   10.3968 H         1 UNK         0.3459 
    134 H134       33.6245   27.0409    7.9649 H         1 UNK         0.0616 
    135 H135       34.6256   27.2484    6.5602 H         1 UNK         0.0616 
    136 H136       32.5990   25.0958    6.3202 H         1 UNK         0.0634 
    137 H137       33.5538   25.6739    4.9743 H         1 UNK         0.0634 
@<TRIPOS>BOND
     1    1    2 1    
     2    1   72 1    
     3    1   73 1    
     4    1   74 1    
     5    2    3 2    
     6    2    4 am   BACKBONE|DICT|INTERRES
     7    4    5 1    
     8    4   75 1    
     9    5    6 1    
    10    5   35 1    
    11    5   76 1    
    12    6    7 1    
    13    6   77 1    
    14    6   78 1    
    15    7    8 1    
    16    8    9 1    
    17    8   79 1    
    18    8   80 1    
    19    9   10 ar   
    20    9   14 ar   
    21   10   11 ar   
    22   10   81 1    
    23   11   12 ar   
    24   11   71 1    
    25   12   13 ar   
    26   12   82 1    
    27   13   14 ar   
    28   13   15 1    
    29   14   83 1    
    30   15   16 1    
    31   15   84 1    
    32   15   85 1    
    33   16   17 1    
    34   17   18 1    
    35   17   86 1    
    36   17   87 1    
    37   18   19 1    
    38   18   37 1    
    39   18   88 1    
    40   19   20 am   BACKBONE|DICT|INTERRES
    41   19   89 1    
    42   20   21 2    
    43   20   22 1    
    44   22   23 1    
    45   22   24 1    
    46   22   90 1    
    47   23   91 1    
    48   23   92 1    
    49   23   93 1    
    50   24   25 am   BACKBONE|DICT|INTERRES
    51   24   94 1    
    52   25   26 2    
    53   25   27 1    
    54   27   28 1    
    55   27   29 1    
    56   27   95 1    
    57   28   96 1    
    58   28   97 1    
    59   28   98 1    
    60   29   30 am   BACKBONE|DICT|INTERRES
    61   29   99 1    
    62   30   31 2    
    63   30   32 1    
    64   32   33 1    
    65   32   34 1    
    66   32  100 1    
    67   33  101 1    
    68   33  102 1    
    69   33  103 1    
    70   34   35 am   BACKBONE|DICT|INTERRES
    71   34  104 1    
    72   35   36 2    
    73   37   38 2    
    74   37   39 am   BACKBONE|DICT|INTERRES
    75   39   40 1    
    76   39  105 1    
    77   40   41 1    
    78   40   42 1    
    79   40  106 1    
    80   41  107 1    
    81   41  108 1    
    82   41  109 1    
    83   42   43 2    
    84   42   44 am   BACKBONE|DICT|INTERRES
    85   44   45 1    
    86   44  110 1    
    87   45   46 1    
    88   45   47 1    
    89   45  111 1    
    90   46  112 1    
    91   46  113 1    
    92   46  114 1    
    93   47   48 2    
    94   47   49 am   BACKBONE|DICT|INTERRES
    95   49   50 1    
    96   49  115 1    
    97   50   51 1    
    98   50   52 1    
    99   50  116 1    
   100   51  117 1    
   101   51  118 1    
   102   51  119 1    
   103   52   53 2    
   104   52   54 am   BACKBONE|DICT|INTERRES
   105   54   55 1    
   106   54  120 1    
   107   55   56 1    
   108   55   57 1    
   109   55  121 1    
   110   56  122 1    
   111   56  123 1    
   112   56  124 1    
   113   57   58 2    
   114   57   59 am   BACKBONE|DICT|INTERRES
   115   59   60 1    
   116   59  125 1    
   117   60   61 1    
   118   60   62 1    
   119   60  126 1    
   120   61  127 1    
   121   61  128 1    
   122   61  129 1    
   123   62   63 2    
   124   62   64 am   BACKBONE|DICT|INTERRES
   125   64   65 1    
   126   64  130 1    
   127   65   66 1    
   128   65   69 1    
   129   65  131 1    
   130   66   67 am   BACKBONE|DICT|INTERRES
   131   66   68 2    
   132   67  132 1    
   133   67  133 1    
   134   69   70 1    
   135   69  134 1    
   136   69  135 1    
   137   70   71 1    
   138   71  136 1    
   139   71  137 1    
@<TRIPOS>SUBSTRUCTURE
     1 UNK         1 GROUP             0       ****    0 ROOT    
