@<TRIPOS>MOLECULE
3R136
137   139    1
SMALL
USER_CHARGES


@<TRIPOS>ATOM
      1 CA         31.0933   21.3285   -1.2166 C.3       0 UNK        -0.1979 
      2 C          30.0986   22.1883   -0.4524 C.2       0 UNK         0.4864 
      3 O          29.6675   23.2234   -0.9615 O.2       0 UNK        -0.5359 
      4 N          29.7111   21.7549    0.7564 N.am      1 UNK        -0.4318 
      5 CA         28.8593   22.4949    1.7009 C.3       1 UNK         0.0824 
      6 C6         28.8295   21.8482    3.1143 C.3       12 UNK        -0.0944 
      7 S7         30.4491   21.2964    3.7648 S.3       12 UNK        -0.2672 
      8 C8         31.0448   22.7379    4.7095 C.3       12 UNK         0.0333 
      9 C9         31.9062   23.6346    3.8345 C.ar      12 UNK        -0.0807 
     10 C10        33.2706   23.3725    3.6849 C.ar      12 UNK        -0.0894 
     11 C11        34.0502   24.1500    2.8240 C.ar      12 UNK        -0.0804 
     12 C12        33.4513   25.1863    2.1017 C.ar      12 UNK        -0.0824 
     13 C13        32.0869   25.4612    2.2402 C.ar      12 UNK        -0.0762 
     14 C14        31.3308   24.6990    3.1398 C.ar      12 UNK        -0.0782 
     15 C15        31.4690   26.5685    1.3861 C.3       12 UNK         0.0230 
     16 S16        29.6977   26.3431    1.0077 S.3       12 UNK        -0.2608 
     17 C17        28.9097   27.1597    2.4375 C.3       12 UNK        -0.0989 
     18 CA         28.4161   28.5745    2.0614 C.3       5 UNK         0.0716 
     19 N          27.4306   28.5355    0.9888 N.am      5 UNK        -0.4135 
     20 C          27.0705   29.5582    0.2117 C.2       4 UNK         0.5031 
     21 O          27.5225   30.6994    0.3435 O.2       4 UNK        -0.5229 
     22 CA         26.0542   29.2339   -0.9093 C.3       4 UNK         0.0329 
     23 CB         25.8668   30.4126   -1.8829 C.3       4 UNK        -0.2001 
     24 N          26.3932   28.0248   -1.6815 N.am      4 UNK        -0.4303 
     25 C          26.3168   26.7587   -1.2418 C.2       3 UNK         0.5044 
     26 O          25.9169   26.4709   -0.1107 O.2       3 UNK        -0.5152 
     27 CA         26.7981   25.6517   -2.2062 C.3       3 UNK         0.0319 
     28 CB         28.2402   25.9021   -2.6848 C.3       3 UNK        -0.2001 
     29 N          26.7410   24.3186   -1.5955 N.am      3 UNK        -0.4354 
     30 C          25.6138   23.6303   -1.3561 C.2       2 UNK         0.4964 
     31 O          24.5012   23.9974   -1.7386 O.2       2 UNK        -0.5047 
     32 CA         25.7250   22.3031   -0.5768 C.3       2 UNK         0.0288 
     33 CB         25.4801   21.1064   -1.5119 C.3       2 UNK        -0.2113 
     34 N          27.0094   22.1131    0.1017 N.am      2 UNK        -0.4145 
     35 C          27.4182   22.7639    1.2014 C.2       1 UNK         0.5006 
     36 O          26.7048   23.5497    1.8261 O.2       1 UNK        -0.5103 
     37 C          27.8724   29.3330    3.2835 C.2       5 UNK         0.5055 
     38 O          26.6571   29.4453    3.4636 O.2       5 UNK        -0.5220 
     39 N          28.8022   29.8812    4.0728 N.am      6 UNK        -0.4450 
     40 CA         28.6368   30.8058    5.2024 C.3       6 UNK         0.0367 
     41 CB         27.7094   30.2425    6.2964 C.3       6 UNK        -0.1929 
     42 C          28.2151   32.2201    4.7654 C.2       6 UNK         0.5070 
     43 O          28.7206   33.1918    5.3266 O.2       6 UNK        -0.5237 
     44 N          27.3407   32.3201    3.7547 N.am      7 UNK        -0.4739 
     45 CA         26.9903   33.5631    3.0676 C.3       7 UNK         0.0276 
     46 CB         25.7488   33.3421    2.1875 C.3       7 UNK        -0.1927 
     47 C          28.1728   34.1025    2.2458 C.2       7 UNK         0.5013 
     48 O          28.5304   35.2705    2.4029 O.2       7 UNK        -0.5193 
     49 N          28.7712   33.2403    1.4096 N.am      8 UNK        -0.4253 
     50 CA         29.9937   33.5422    0.6624 C.3       8 UNK         0.0242 
     51 CB         30.1004   32.6128   -0.5602 C.3       8 UNK        -0.2000 
     52 C          31.2378   33.4371    1.5608 C.2       8 UNK         0.4948 
     53 O          31.9438   34.4287    1.7473 O.2       8 UNK        -0.5275 
     54 N          31.4713   32.2353    2.0985 N.am      9 UNK        -0.4246 
     55 CA         32.5857   31.8309    2.9557 C.3       9 UNK         0.0261 
     56 CB         33.9179   31.8809    2.1778 C.3       9 UNK        -0.1959 
     57 C          32.2913   30.4020    3.4342 C.2       9 UNK         0.5033 
     58 O          31.3167   29.8036    2.9730 O.2       9 UNK        -0.5390 
     59 N          33.1180   29.8611    4.3318 N.am      10 UNK        -0.4215 
     60 CA         33.0561   28.4707    4.7814 C.3       10 UNK         0.0240 
     61 CB         31.9400   28.2832    5.8277 C.3       10 UNK        -0.1982 
     62 C          34.4209   28.0757    5.3510 C.2       10 UNK         0.4970 
     63 O          35.1560   28.9487    5.8203 O.2       10 UNK        -0.4916 
     64 N          34.7237   26.7734    5.3138 N.am      11 UNK        -0.4279 
     65 CA         35.9645   26.1946    5.8575 C.3       11 UNK         0.1003 
     66 C          35.9640   26.0097    7.4038 C.2       11 UNK         0.5709 
     67 N          34.8518   26.2081    8.1021 N.am      11 UNK        -0.7358 
     68 O          36.9993   25.6905    7.9839 O.2       11 UNK        -0.4999 
     69 C69        36.3529   24.8771    5.1362 C.3       12 UNK        -0.0954 
     70 S70        36.6097   25.1147    3.3451 S.3       12 UNK        -0.2268 
     71 C71        35.5274   23.8376    2.6302 C.3       12 UNK         0.0203 
     72 H72        31.9996   21.8985   -1.4189 H         1 UNK         0.0888 
     73 H73        31.3723   20.4344   -0.6594 H         1 UNK         0.0888 
     74 H74        30.6663   21.0168   -2.1694 H         1 UNK         0.0888 
     75 H75        30.1020   20.8980    1.1227 H         1 UNK         0.3017 
     76 H76        29.3120   23.4798    1.7954 H         1 UNK         0.0873 
     77 H77        28.3744   22.5320    3.8333 H         1 UNK         0.0745 
     78 H78        28.1863   20.9659    3.1022 H         1 UNK         0.0745 
     79 H79        31.6322   22.3822    5.5574 H         1 UNK         0.0705 
     80 H80        30.2066   23.2926    5.1336 H         1 UNK         0.0705 
     81 H81        33.7182   22.5460    4.2201 H         1 UNK         0.1334 
     82 H82        34.0516   25.7703    1.4169 H         1 UNK         0.1417 
     83 H83        30.2785   24.8960    3.2754 H         1 UNK         0.1562 
     84 H84        31.9940   26.6170    0.4310 H         1 UNK         0.0748 
     85 H85        31.6270   27.5324    1.8654 H         1 UNK         0.0748 
     86 H86        29.6206   27.2061    3.2649 H         1 UNK         0.0940 
     87 H87        28.0793   26.5376    2.7782 H         1 UNK         0.0940 
     88 H88        29.2660   29.1385    1.6741 H         1 UNK         0.0703 
     89 H89        26.9779   27.6407    0.8197 H         1 UNK         0.3081 
     90 H90        25.0958   29.0591   -0.4160 H         1 UNK         0.0719 
     91 H91        26.7941   30.6556   -2.4034 H         1 UNK         0.0809 
     92 H92        25.1058   30.1939   -2.6322 H         1 UNK         0.0809 
     93 H93        25.5463   31.3109   -1.3532 H         1 UNK         0.0809 
     94 H94        26.7568   28.1843   -2.6099 H         1 UNK         0.2990 
     95 H95        26.1379   25.6615   -3.0757 H         1 UNK         0.0690 
     96 H96        28.5778   25.1075   -3.3506 H         1 UNK         0.0788 
     97 H97        28.9387   25.9478   -1.8487 H         1 UNK         0.0788 
     98 H98        28.3281   26.8376   -3.2376 H         1 UNK         0.0788 
     99 H99        27.6183   23.9514   -1.2435 H         1 UNK         0.2993 
    100 H100       24.9394   22.3125    0.1820 H         1 UNK         0.0949 
    101 H101       26.2410   21.0410   -2.2908 H         1 UNK         0.0767 
    102 H102       25.4791   20.1654   -0.9613 H         1 UNK         0.0767 
    103 H103       24.5120   21.1893   -2.0083 H         1 UNK         0.0767 
    104 H104       27.6692   21.4930   -0.3447 H         1 UNK         0.3013 
    105 H105       29.7701   29.7629    3.7664 H         1 UNK         0.3121 
    106 H106       29.6319   30.9018    5.6405 H         1 UNK         0.0774 
    107 H107       27.7221   30.8835    7.1787 H         1 UNK         0.0815 
    108 H108       26.6732   30.1761    5.9644 H         1 UNK         0.0815 
    109 H109       28.0268   29.2489    6.6122 H         1 UNK         0.0815 
    110 H110       26.9486   31.4584    3.3897 H         1 UNK         0.2987 
    111 H111       26.7414   34.3108    3.8242 H         1 UNK         0.0949 
    112 H112       25.4708   34.2610    1.6695 H         1 UNK         0.0806 
    113 H113       25.9154   32.5779    1.4279 H         1 UNK         0.0806 
    114 H114       24.8903   33.0359    2.7854 H         1 UNK         0.0806 
    115 H115       28.3707   32.3157    1.2827 H         1 UNK         0.3010 
    116 H116       29.9349   34.5686    0.2929 H         1 UNK         0.0829 
    117 H117       29.2554   32.7530   -1.2347 H         1 UNK         0.0813 
    118 H118       31.0077   32.8192   -1.1294 H         1 UNK         0.0813 
    119 H119       30.1234   31.5596   -0.2778 H         1 UNK         0.0813 
    120 H120       30.8308   31.4727    1.9129 H         1 UNK         0.3038 
    121 H121       32.6267   32.4921    3.8232 H         1 UNK         0.0769 
    122 H122       33.8938   31.2327    1.3008 H         1 UNK         0.0811 
    123 H123       34.7547   31.5594    2.7987 H         1 UNK         0.0811 
    124 H124       34.1496   32.8902    1.8385 H         1 UNK         0.0811 
    125 H125       33.9197   30.3763    4.6763 H         1 UNK         0.3204 
    126 H126       32.8548   27.8305    3.9206 H         1 UNK         0.0748 
    127 H127       31.9075   27.2545    6.1884 H         1 UNK         0.0771 
    128 H128       32.0876   28.9311    6.6926 H         1 UNK         0.0771 
    129 H129       30.9582   28.5022    5.4102 H         1 UNK         0.0771 
    130 H130       34.0737   26.1186    4.9037 H         1 UNK         0.2980 
    131 H131       36.7685   26.9065    5.6600 H         1 UNK         0.0545 
    132 H132       33.9976   26.4742    7.6415 H         1 UNK         0.3459 
    133 H133       34.8714   26.0896    9.1027 H         1 UNK         0.3459 
    134 H134       35.5952   24.1117    5.3096 H         1 UNK         0.0616 
    135 H135       37.2842   24.4772    5.5415 H         1 UNK         0.0616 
    136 H136       35.7834   22.8683    3.0610 H         1 UNK         0.0634 
    137 H137       35.7373   23.7605    1.5625 H         1 UNK         0.0634 
@<TRIPOS>BOND
     1    1    2 1    
     2    1   72 1    
     3    1   73 1    
     4    1   74 1    
     5    2    3 2    
     6    2    4 am   BACKBONE|DICT|INTERRES
     7    4    5 1    
     8    4   75 1    
     9    5    6 1    
    10    5   35 1    
    11    5   76 1    
    12    6    7 1    
    13    6   77 1    
    14    6   78 1    
    15    7    8 1    
    16    8    9 1    
    17    8   79 1    
    18    8   80 1    
    19    9   10 ar   
    20    9   14 ar   
    21   10   11 ar   
    22   10   81 1    
    23   11   12 ar   
    24   11   71 1    
    25   12   13 ar   
    26   12   82 1    
    27   13   14 ar   
    28   13   15 1    
    29   14   83 1    
    30   15   16 1    
    31   15   84 1    
    32   15   85 1    
    33   16   17 1    
    34   17   18 1    
    35   17   86 1    
    36   17   87 1    
    37   18   19 1    
    38   18   37 1    
    39   18   88 1    
    40   19   20 am   BACKBONE|DICT|INTERRES
    41   19   89 1    
    42   20   21 2    
    43   20   22 1    
    44   22   23 1    
    45   22   24 1    
    46   22   90 1    
    47   23   91 1    
    48   23   92 1    
    49   23   93 1    
    50   24   25 am   BACKBONE|DICT|INTERRES
    51   24   94 1    
    52   25   26 2    
    53   25   27 1    
    54   27   28 1    
    55   27   29 1    
    56   27   95 1    
    57   28   96 1    
    58   28   97 1    
    59   28   98 1    
    60   29   30 am   BACKBONE|DICT|INTERRES
    61   29   99 1    
    62   30   31 2    
    63   30   32 1    
    64   32   33 1    
    65   32   34 1    
    66   32  100 1    
    67   33  101 1    
    68   33  102 1    
    69   33  103 1    
    70   34   35 am   BACKBONE|DICT|INTERRES
    71   34  104 1    
    72   35   36 2    
    73   37   38 2    
    74   37   39 am   BACKBONE|DICT|INTERRES
    75   39   40 1    
    76   39  105 1    
    77   40   41 1    
    78   40   42 1    
    79   40  106 1    
    80   41  107 1    
    81   41  108 1    
    82   41  109 1    
    83   42   43 2    
    84   42   44 am   BACKBONE|DICT|INTERRES
    85   44   45 1    
    86   44  110 1    
    87   45   46 1    
    88   45   47 1    
    89   45  111 1    
    90   46  112 1    
    91   46  113 1    
    92   46  114 1    
    93   47   48 2    
    94   47   49 am   BACKBONE|DICT|INTERRES
    95   49   50 1    
    96   49  115 1    
    97   50   51 1    
    98   50   52 1    
    99   50  116 1    
   100   51  117 1    
   101   51  118 1    
   102   51  119 1    
   103   52   53 2    
   104   52   54 am   BACKBONE|DICT|INTERRES
   105   54   55 1    
   106   54  120 1    
   107   55   56 1    
   108   55   57 1    
   109   55  121 1    
   110   56  122 1    
   111   56  123 1    
   112   56  124 1    
   113   57   58 2    
   114   57   59 am   BACKBONE|DICT|INTERRES
   115   59   60 1    
   116   59  125 1    
   117   60   61 1    
   118   60   62 1    
   119   60  126 1    
   120   61  127 1    
   121   61  128 1    
   122   61  129 1    
   123   62   63 2    
   124   62   64 am   BACKBONE|DICT|INTERRES
   125   64   65 1    
   126   64  130 1    
   127   65   66 1    
   128   65   69 1    
   129   65  131 1    
   130   66   67 am   BACKBONE|DICT|INTERRES
   131   66   68 2    
   132   67  132 1    
   133   67  133 1    
   134   69   70 1    
   135   69  134 1    
   136   69  135 1    
   137   70   71 1    
   138   71  136 1    
   139   71  137 1    
@<TRIPOS>SUBSTRUCTURE
     1 UNK         1 GROUP             0       ****    0 ROOT    
