@<TRIPOS>MOLECULE
3R136
137   139    1
SMALL
USER_CHARGES


@<TRIPOS>ATOM
      1 CA         25.1228   23.3154    5.6920 C.3       0 UNK        -0.1979 
      2 C          25.7118   23.5321    4.3063 C.2       0 UNK         0.4864 
      3 O          25.4217   24.5480    3.6735 O.2       0 UNK        -0.5359 
      4 N          26.5151   22.5734    3.8230 N.am      1 UNK        -0.4318 
      5 CA         27.2722   22.5623    2.5568 C.3       1 UNK         0.0824 
      6 C6         28.3094   23.7104    2.4373 C.3       12 UNK        -0.0944 
      7 S7         29.5317   23.6612    3.7955 S.3       12 UNK        -0.2672 
      8 C8         30.9719   22.9111    2.9754 C.3       12 UNK         0.0333 
      9 C9         31.8389   23.9347    2.2520 C.ar      12 UNK        -0.0807 
     10 C10        32.8299   24.6296    2.9543 C.ar      12 UNK        -0.0894 
     11 C11        33.6999   25.4982    2.2879 C.ar      12 UNK        -0.0804 
     12 C12        33.5624   25.6804    0.9097 C.ar      12 UNK        -0.0824 
     13 C13        32.5652   25.0086    0.1970 C.ar      12 UNK        -0.0762 
     14 C14        31.7049   24.1368    0.8734 C.ar      12 UNK        -0.0782 
     15 C15        32.4639   25.1827   -1.3133 C.3       12 UNK         0.0230 
     16 S16        30.9846   26.1093   -1.8299 S.3       12 UNK        -0.2608 
     17 C17        31.2613   27.7594   -1.0840 C.3       12 UNK        -0.0989 
     18 CA         29.9766   28.4222   -0.5225 C.3       5 UNK         0.0716 
     19 N          28.9421   28.5310   -1.5478 N.am      5 UNK        -0.4135 
     20 C          27.9575   29.4374   -1.5636 C.2       4 UNK         0.5031 
     21 O          27.9043   30.4131   -0.8140 O.2       4 UNK        -0.5229 
     22 CA         26.8254   29.1985   -2.5813 C.3       4 UNK         0.0329 
     23 CB         27.1596   29.8567   -3.9298 C.3       4 UNK        -0.2001 
     24 N          26.5463   27.7718   -2.7855 N.am      4 UNK        -0.4303 
     25 C          26.0161   26.9703   -1.8505 C.2       3 UNK         0.5044 
     26 O          25.5853   27.3748   -0.7666 O.2       3 UNK        -0.5152 
     27 CA         25.9663   25.4715   -2.1823 C.3       3 UNK         0.0319 
     28 CB         27.3691   24.8951   -2.4629 C.3       3 UNK        -0.2001 
     29 N          25.3737   24.7619   -1.0531 N.am      3 UNK        -0.4354 
     30 C          24.6975   23.6112   -1.1137 C.2       2 UNK         0.4964 
     31 O          24.4839   22.9968   -2.1612 O.2       2 UNK        -0.5047 
     32 CA         24.1841   23.0623    0.2324 C.3       2 UNK         0.0288 
     33 CB         23.5482   21.6602    0.1119 C.3       2 UNK        -0.2113 
     34 N          25.2113   23.0736    1.2834 N.am      2 UNK        -0.4145 
     35 C          26.4001   22.4509    1.2842 C.2       1 UNK         0.5006 
     36 O          26.8175   21.7722    0.3442 O.2       1 UNK        -0.5103 
     37 C          29.4074   27.6621    0.6931 C.2       5 UNK         0.5055 
     38 O          28.5826   26.7606    0.5227 O.2       5 UNK        -0.5220 
     39 N          29.8648   28.0207    1.8945 N.am      6 UNK        -0.4450 
     40 CA         29.4967   27.3689    3.1447 C.3       6 UNK         0.0367 
     41 CB         28.1243   27.8621    3.6392 C.3       6 UNK        -0.1929 
     42 C          30.5927   27.6395    4.1722 C.2       6 UNK         0.5070 
     43 O          31.2762   28.6588    4.0582 O.2       6 UNK        -0.5237 
     44 N          30.7227   26.7332    5.1502 N.am      7 UNK        -0.4739 
     45 CA         31.7474   26.6978    6.2014 C.3       7 UNK         0.0276 
     46 CB         31.6965   25.3158    6.8806 C.3       7 UNK        -0.1927 
     47 C          31.6573   27.8564    7.2193 C.2       7 UNK         0.5013 
     48 O          31.4592   27.6228    8.4135 O.2       7 UNK        -0.5193 
     49 N          31.8098   29.0841    6.7227 N.am      8 UNK        -0.4253 
     50 CA         31.8188   30.3503    7.4458 C.3       8 UNK         0.0242 
     51 CB         30.3882   30.7216    7.8996 C.3       8 UNK        -0.2000 
     52 C          32.4675   31.3983    6.5258 C.2       8 UNK         0.4948 
     53 O          33.3246   31.0474    5.7101 O.2       8 UNK        -0.5275 
     54 N          32.0254   32.6607    6.6163 N.am      9 UNK        -0.4246 
     55 CA         32.4763   33.7841    5.7803 C.3       9 UNK         0.0261 
     56 CB         31.8051   35.0766    6.2736 C.3       9 UNK        -0.1959 
     57 C          32.2418   33.5994    4.2654 C.2       9 UNK         0.5033 
     58 O          32.8742   34.2946    3.4696 O.2       9 UNK        -0.5390 
     59 N          31.3626   32.6587    3.8934 N.am      10 UNK        -0.4215 
     60 CA         31.1087   32.2243    2.5201 C.3       10 UNK         0.0240 
     61 CB         29.7649   31.4790    2.4740 C.3       10 UNK        -0.1982 
     62 C          32.2466   31.3841    1.8999 C.2       10 UNK         0.4970 
     63 O          32.2087   31.1661    0.6880 O.2       10 UNK        -0.4916 
     64 N          33.2347   30.9464    2.6943 N.am      11 UNK        -0.4279 
     65 CA         34.4788   30.3337    2.2001 C.3       11 UNK         0.1003 
     66 C          35.7575   30.7890    2.9574 C.2       11 UNK         0.5709 
     67 N          35.6716   31.3033    4.1785 N.am      11 UNK        -0.7358 
     68 O          36.8541   30.7013    2.4093 O.2       11 UNK        -0.4999 
     69 C69        34.3756   28.7933    2.0353 C.3       12 UNK        -0.0954 
     70 S70        34.3723   27.8588    3.6036 S.3       12 UNK        -0.2268 
     71 C71        34.8279   26.1904    3.0425 C.3       12 UNK         0.0203 
     72 H72        25.4544   22.3764    6.1348 H         1 UNK         0.0888 
     73 H73        25.4215   24.1266    6.3554 H         1 UNK         0.0888 
     74 H74        24.0346   23.3007    5.6393 H         1 UNK         0.0888 
     75 H75        26.6696   21.7560    4.3968 H         1 UNK         0.3017 
     76 H76        27.8392   21.6301    2.5873 H         1 UNK         0.0873 
     77 H77        28.8331   23.6649    1.4812 H         1 UNK         0.0745 
     78 H78        27.8097   24.6802    2.4512 H         1 UNK         0.0745 
     79 H79        31.5718   22.4047    3.7331 H         1 UNK         0.0705 
     80 H80        30.6411   22.1304    2.2884 H         1 UNK         0.0705 
     81 H81        32.9448   24.4699    4.0171 H         1 UNK         0.1334 
     82 H82        34.2463   26.3353    0.3879 H         1 UNK         0.1417 
     83 H83        30.9492   23.5987    0.3178 H         1 UNK         0.1562 
     84 H84        32.4400   24.1985   -1.7832 H         1 UNK         0.0748 
     85 H85        33.3494   25.6836   -1.7080 H         1 UNK         0.0748 
     86 H86        31.6946   28.4034   -1.8508 H         1 UNK         0.0940 
     87 H87        32.0174   27.6974   -0.3014 H         1 UNK         0.0940 
     88 H88        30.2411   29.4300   -0.1961 H         1 UNK         0.0703 
     89 H89        28.8743   27.7371   -2.1664 H         1 UNK         0.3081 
     90 H90        25.9217   29.6685   -2.1869 H         1 UNK         0.0719 
     91 H91        28.0479   29.4188   -4.3869 H         1 UNK         0.0809 
     92 H92        26.3343   29.7578   -4.6353 H         1 UNK         0.0809 
     93 H93        27.3502   30.9236   -3.8047 H         1 UNK         0.0809 
     94 H94        26.8407   27.3701   -3.6643 H         1 UNK         0.2990 
     95 H95        25.3340   25.3474   -3.0639 H         1 UNK         0.0690 
     96 H96        27.3230   23.8265   -2.6738 H         1 UNK         0.0788 
     97 H97        28.0342   25.0336   -1.6092 H         1 UNK         0.0788 
     98 H98        27.8374   25.3694   -3.3255 H         1 UNK         0.0788 
     99 H99        25.4584   25.2506   -0.1699 H         1 UNK         0.2993 
    100 H100       23.4020   23.7492    0.5598 H         1 UNK         0.0949 
    101 H101       23.1637   21.3158    1.0719 H         1 UNK         0.0767 
    102 H102       22.7108   21.6696   -0.5870 H         1 UNK         0.0767 
    103 H103       24.2638   20.9201   -0.2479 H         1 UNK         0.0767 
    104 H104       25.0159   23.6520    2.0987 H         1 UNK         0.3013 
    105 H105       30.5894   28.7211    1.9949 H         1 UNK         0.3121 
    106 H106       29.4603   26.2970    2.9653 H         1 UNK         0.0774 
    107 H107       28.1211   28.9374    3.8183 H         1 UNK         0.0815 
    108 H108       27.8473   27.3726    4.5736 H         1 UNK         0.0815 
    109 H109       27.3384   27.6393    2.9172 H         1 UNK         0.0815 
    110 H110       30.0887   25.9462    5.1403 H         1 UNK         0.2987 
    111 H111       32.7205   26.7856    5.7168 H         1 UNK         0.0949 
    112 H112       30.7433   25.1499    7.3840 H         1 UNK         0.0806 
    113 H113       31.8377   24.5097    6.1609 H         1 UNK         0.0806 
    114 H114       32.4833   25.2187    7.6299 H         1 UNK         0.0806 
    115 H115       31.9507   29.1627    5.7153 H         1 UNK         0.3010 
    116 H116       32.4601   30.2453    8.3229 H         1 UNK         0.0829 
    117 H117       29.9453   29.9303    8.5044 H         1 UNK         0.0813 
    118 H118       30.3825   31.6200    8.5174 H         1 UNK         0.0813 
    119 H119       29.7262   30.8921    7.0495 H         1 UNK         0.0813 
    120 H120       31.3152   32.8693    7.3036 H         1 UNK         0.3038 
    121 H121       33.5545   33.8827    5.9228 H         1 UNK         0.0769 
    122 H122       30.7193   35.0286    6.1808 H         1 UNK         0.0811 
    123 H123       32.1432   35.9380    5.6956 H         1 UNK         0.0811 
    124 H124       32.0462   35.2771    7.3177 H         1 UNK         0.0811 
    125 H125       30.8953   32.1401    4.6219 H         1 UNK         0.3204 
    126 H126       31.0128   33.1182    1.9001 H         1 UNK         0.0748 
    127 H127       29.5400   31.1269    1.4665 H         1 UNK         0.0771 
    128 H128       29.7607   30.6153    3.1366 H         1 UNK         0.0771 
    129 H129       28.9434   32.1300    2.7733 H         1 UNK         0.0771 
    130 H130       33.1846   31.1003    3.6947 H         1 UNK         0.2980 
    131 H131       34.6399   30.7292    1.1951 H         1 UNK         0.0545 
    132 H132       34.8020   31.2770    4.7047 H         1 UNK         0.3459 
    133 H133       36.5169   31.6031    4.6362 H         1 UNK         0.3459 
    134 H134       35.2064   28.4385    1.4234 H         1 UNK         0.0616 
    135 H135       33.4676   28.5415    1.4870 H         1 UNK         0.0616 
    136 H136       35.7225   26.2452    2.4206 H         1 UNK         0.0634 
    137 H137       35.1051   25.5984    3.9159 H         1 UNK         0.0634 
@<TRIPOS>BOND
     1    1    2 1    
     2    1   72 1    
     3    1   73 1    
     4    1   74 1    
     5    2    3 2    
     6    2    4 am   BACKBONE|DICT|INTERRES
     7    4    5 1    
     8    4   75 1    
     9    5    6 1    
    10    5   35 1    
    11    5   76 1    
    12    6    7 1    
    13    6   77 1    
    14    6   78 1    
    15    7    8 1    
    16    8    9 1    
    17    8   79 1    
    18    8   80 1    
    19    9   10 ar   
    20    9   14 ar   
    21   10   11 ar   
    22   10   81 1    
    23   11   12 ar   
    24   11   71 1    
    25   12   13 ar   
    26   12   82 1    
    27   13   14 ar   
    28   13   15 1    
    29   14   83 1    
    30   15   16 1    
    31   15   84 1    
    32   15   85 1    
    33   16   17 1    
    34   17   18 1    
    35   17   86 1    
    36   17   87 1    
    37   18   19 1    
    38   18   37 1    
    39   18   88 1    
    40   19   20 am   BACKBONE|DICT|INTERRES
    41   19   89 1    
    42   20   21 2    
    43   20   22 1    
    44   22   23 1    
    45   22   24 1    
    46   22   90 1    
    47   23   91 1    
    48   23   92 1    
    49   23   93 1    
    50   24   25 am   BACKBONE|DICT|INTERRES
    51   24   94 1    
    52   25   26 2    
    53   25   27 1    
    54   27   28 1    
    55   27   29 1    
    56   27   95 1    
    57   28   96 1    
    58   28   97 1    
    59   28   98 1    
    60   29   30 am   BACKBONE|DICT|INTERRES
    61   29   99 1    
    62   30   31 2    
    63   30   32 1    
    64   32   33 1    
    65   32   34 1    
    66   32  100 1    
    67   33  101 1    
    68   33  102 1    
    69   33  103 1    
    70   34   35 am   BACKBONE|DICT|INTERRES
    71   34  104 1    
    72   35   36 2    
    73   37   38 2    
    74   37   39 am   BACKBONE|DICT|INTERRES
    75   39   40 1    
    76   39  105 1    
    77   40   41 1    
    78   40   42 1    
    79   40  106 1    
    80   41  107 1    
    81   41  108 1    
    82   41  109 1    
    83   42   43 2    
    84   42   44 am   BACKBONE|DICT|INTERRES
    85   44   45 1    
    86   44  110 1    
    87   45   46 1    
    88   45   47 1    
    89   45  111 1    
    90   46  112 1    
    91   46  113 1    
    92   46  114 1    
    93   47   48 2    
    94   47   49 am   BACKBONE|DICT|INTERRES
    95   49   50 1    
    96   49  115 1    
    97   50   51 1    
    98   50   52 1    
    99   50  116 1    
   100   51  117 1    
   101   51  118 1    
   102   51  119 1    
   103   52   53 2    
   104   52   54 am   BACKBONE|DICT|INTERRES
   105   54   55 1    
   106   54  120 1    
   107   55   56 1    
   108   55   57 1    
   109   55  121 1    
   110   56  122 1    
   111   56  123 1    
   112   56  124 1    
   113   57   58 2    
   114   57   59 am   BACKBONE|DICT|INTERRES
   115   59   60 1    
   116   59  125 1    
   117   60   61 1    
   118   60   62 1    
   119   60  126 1    
   120   61  127 1    
   121   61  128 1    
   122   61  129 1    
   123   62   63 2    
   124   62   64 am   BACKBONE|DICT|INTERRES
   125   64   65 1    
   126   64  130 1    
   127   65   66 1    
   128   65   69 1    
   129   65  131 1    
   130   66   67 am   BACKBONE|DICT|INTERRES
   131   66   68 2    
   132   67  132 1    
   133   67  133 1    
   134   69   70 1    
   135   69  134 1    
   136   69  135 1    
   137   70   71 1    
   138   71  136 1    
   139   71  137 1    
@<TRIPOS>SUBSTRUCTURE
     1 UNK         1 GROUP             0       ****    0 ROOT    
