@<TRIPOS>MOLECULE
3R136
137   139    1
SMALL
USER_CHARGES


@<TRIPOS>ATOM
      1 CA         27.3619   22.9290   -3.2977 C.3       0 UNK        -0.1979 
      2 C          27.5975   23.7574   -2.0443 C.2       0 UNK         0.4864 
      3 O          27.7408   24.9779   -2.1362 O.2       0 UNK        -0.5359 
      4 N          27.6520   23.1077   -0.8744 N.am      1 UNK        -0.4318 
      5 CA         27.8268   23.7668    0.4199 C.3       1 UNK         0.0824 
      6 C6         28.2801   22.7751    1.5195 C.3       12 UNK        -0.0944 
      7 S7         29.0373   23.6296    2.9473 S.3       12 UNK        -0.2672 
      8 C8         30.4240   22.5281    3.3688 C.3       12 UNK         0.0333 
      9 C9         31.7299   22.9666    2.7197 C.ar      12 UNK        -0.0807 
     10 C10        32.7407   23.5448    3.4948 C.ar      12 UNK        -0.0894 
     11 C11        33.9635   23.8998    2.9171 C.ar      12 UNK        -0.0804 
     12 C12        34.1606   23.7046    1.5470 C.ar      12 UNK        -0.0824 
     13 C13        33.1605   23.1261    0.7604 C.ar      12 UNK        -0.0762 
     14 C14        31.9525   22.7499    1.3568 C.ar      12 UNK        -0.0782 
     15 C15        33.4208   22.8409   -0.7140 C.3       12 UNK         0.0230 
     16 S16        32.0598   23.3702   -1.8028 S.3       12 UNK        -0.2608 
     17 C17        32.2572   25.1816   -1.8243 C.3       12 UNK        -0.0989 
     18 CA         31.0538   25.8950   -1.1520 C.3       5 UNK         0.0716 
     19 N          31.2845   26.1703    0.2723 N.am      5 UNK        -0.4135 
     20 C          30.3834   26.7256    1.0944 C.2       4 UNK         0.5031 
     21 O          29.2201   26.9801    0.7558 O.2       4 UNK        -0.5229 
     22 CA         30.8440   27.0611    2.5214 C.3       4 UNK         0.0329 
     23 CB         31.9939   28.0822    2.5202 C.3       4 UNK        -0.2001 
     24 N          29.6889   27.6264    3.2043 N.am      4 UNK        -0.4303 
     25 C          29.3030   27.4253    4.4668 C.2       3 UNK         0.5044 
     26 O          30.0294   26.9517    5.3431 O.2       3 UNK        -0.5152 
     27 CA         27.8347   27.7743    4.7911 C.3       3 UNK         0.0319 
     28 CB         27.7144   29.1681    5.4136 C.3       3 UNK        -0.2001 
     29 N          27.0069   27.7204    3.5778 N.am      3 UNK        -0.4354 
     30 C          26.1935   26.6996    3.2767 C.2       2 UNK         0.4964 
     31 O          25.8899   25.8071    4.0694 O.2       2 UNK        -0.5047 
     32 CA         25.6828   26.6039    1.8325 C.3       2 UNK         0.0288 
     33 CB         25.4816   27.9582    1.1270 C.3       2 UNK        -0.2113 
     34 N          26.6662   25.8091    1.1048 N.am      2 UNK        -0.4145 
     35 C          26.5383   24.5078    0.8279 C.2       1 UNK         0.5006 
     36 O          25.4799   23.8788    0.9154 O.2       1 UNK        -0.5103 
     37 C          30.6676   27.1857   -1.9052 C.2       5 UNK         0.5055 
     38 O          31.5228   28.0511   -2.1047 O.2       5 UNK        -0.5220 
     39 N          29.3837   27.2761   -2.2817 N.am      6 UNK        -0.4450 
     40 CA         28.7241   28.3809   -2.9803 C.3       6 UNK         0.0367 
     41 CB         29.2019   28.4387   -4.4472 C.3       6 UNK        -0.1929 
     42 C          28.8252   29.7464   -2.2659 C.2       6 UNK         0.5070 
     43 O          28.8713   30.7732   -2.9473 O.2       6 UNK        -0.5237 
     44 N          28.8461   29.7617   -0.9240 N.am      7 UNK        -0.4739 
     45 CA         28.9351   30.9934   -0.1366 C.3       7 UNK         0.0276 
     46 CB         30.4101   31.3596    0.0996 C.3       7 UNK        -0.1927 
     47 C          28.1816   30.8683    1.1917 C.2       7 UNK         0.5013 
     48 O          28.1852   29.8016    1.8121 O.2       7 UNK        -0.5193 
     49 N          27.5762   31.9875    1.6106 N.am      8 UNK        -0.4253 
     50 CA         26.8508   32.1399    2.8749 C.3       8 UNK         0.0242 
     51 CB         25.7307   33.1766    2.6838 C.3       8 UNK        -0.2000 
     52 C          27.7619   32.5360    4.0528 C.2       8 UNK         0.4948 
     53 O          27.2930   32.5414    5.1918 O.2       8 UNK        -0.5275 
     54 N          29.0375   32.8442    3.7803 N.am      9 UNK        -0.4246 
     55 CA         30.0840   32.9919    4.7913 C.3       9 UNK         0.0261 
     56 CB         31.2403   33.8233    4.2119 C.3       9 UNK        -0.1959 
     57 C          30.5711   31.5962    5.2072 C.2       9 UNK         0.5033 
     58 O          30.8343   30.7724    4.3293 O.2       9 UNK        -0.5390 
     59 N          30.6627   31.3499    6.5202 N.am      10 UNK        -0.4215 
     60 CA         31.0430   30.0579    7.0976 C.3       10 UNK         0.0240 
     61 CB         30.8492   30.1010    8.6220 C.3       10 UNK        -0.1982 
     62 C          32.4807   29.6523    6.7422 C.2       10 UNK         0.4970 
     63 O          33.3921   30.4725    6.8781 O.2       10 UNK        -0.4916 
     64 N          32.6488   28.3967    6.3115 N.am      11 UNK        -0.4279 
     65 CA         33.9481   27.8040    5.9711 C.3       11 UNK         0.1003 
     66 C          34.8919   27.6481    7.1974 C.2       11 UNK         0.5709 
     67 N          36.1996   27.7052    6.9853 N.am      11 UNK        -0.7358 
     68 O          34.4524   27.4402    8.3274 O.2       11 UNK        -0.4999 
     69 C69        33.7656   26.4640    5.2089 C.3       12 UNK        -0.0954 
     70 S70        35.0358   26.2492    3.9197 S.3       12 UNK        -0.2268 
     71 C71        35.0961   24.4408    3.7773 C.3       12 UNK         0.0203 
     72 H72        28.1989   23.0464   -3.9854 H         1 UNK         0.0888 
     73 H73        27.2542   21.8683   -3.0717 H         1 UNK         0.0888 
     74 H74        26.4558   23.2630   -3.8023 H         1 UNK         0.0888 
     75 H75        27.4919   22.1109   -0.8473 H         1 UNK         0.3017 
     76 H76        28.6257   24.4957    0.2929 H         1 UNK         0.0873 
     77 H77        29.0028   22.0737    1.1046 H         1 UNK         0.0745 
     78 H78        27.4489   22.1613    1.8726 H         1 UNK         0.0745 
     79 H79        30.5303   22.5206    4.4547 H         1 UNK         0.0705 
     80 H80        30.1920   21.5001    3.0868 H         1 UNK         0.0705 
     81 H81        32.5870   23.6948    4.5547 H         1 UNK         0.1334 
     82 H82        35.1091   23.9729    1.1013 H         1 UNK         0.1417 
     83 H83        31.1908   22.2778    0.7543 H         1 UNK         0.1562 
     84 H84        33.5602   21.7659   -0.8344 H         1 UNK         0.0748 
     85 H85        34.3483   23.3078   -1.0495 H         1 UNK         0.0748 
     86 H86        32.3489   25.4559   -2.8777 H         1 UNK         0.0940 
     87 H87        33.2027   25.4782   -1.3670 H         1 UNK         0.0940 
     88 H88        30.1943   25.2275   -1.2052 H         1 UNK         0.0703 
     89 H89        32.2106   25.9755    0.6220 H         1 UNK         0.3081 
     90 H90        31.1510   26.1363    3.0134 H         1 UNK         0.0719 
     91 H91        31.7510   28.9586    1.9231 H         1 UNK         0.0809 
     92 H92        32.2151   28.4342    3.5265 H         1 UNK         0.0809 
     93 H93        32.9100   27.6506    2.1170 H         1 UNK         0.0809 
     94 H94        29.0396   28.0762    2.5664 H         1 UNK         0.2990 
     95 H95        27.4801   27.0495    5.5266 H         1 UNK         0.0690 
     96 H96        28.1362   29.1883    6.4176 H         1 UNK         0.0788 
     97 H97        26.6746   29.4848    5.4972 H         1 UNK         0.0788 
     98 H98        28.2436   29.9038    4.8126 H         1 UNK         0.0788 
     99 H99        27.2054   28.4203    2.8680 H         1 UNK         0.2993 
    100 H100       24.7154   26.0978    1.8680 H         1 UNK         0.0949 
    101 H101       24.8428   27.8399    0.2518 H         1 UNK         0.0767 
    102 H102       25.0004   28.6878    1.7799 H         1 UNK         0.0767 
    103 H103       26.4204   28.3804    0.7753 H         1 UNK         0.0767 
    104 H104       27.5849   26.2369    0.9910 H         1 UNK         0.3013 
    105 H105       28.7723   26.4859   -2.0720 H         1 UNK         0.3121 
    106 H106       27.6620   28.1316   -2.9912 H         1 UNK         0.0774 
    107 H107       28.6206   29.1597   -5.0232 H         1 UNK         0.0815 
    108 H108       30.2494   28.7336   -4.5174 H         1 UNK         0.0815 
    109 H109       29.0911   27.4721   -4.9386 H         1 UNK         0.0815 
    110 H110       28.7916   28.8951   -0.3978 H         1 UNK         0.2987 
    111 H111       28.4662   31.8059   -0.6968 H         1 UNK         0.0949 
    112 H112       30.9352   30.5710    0.6345 H         1 UNK         0.0806 
    113 H113       30.9327   31.5256   -0.8427 H         1 UNK         0.0806 
    114 H114       30.5048   32.2735    0.6870 H         1 UNK         0.0806 
    115 H115       27.6279   32.8121    1.0288 H         1 UNK         0.3010 
    116 H116       26.3887   31.1846    3.1349 H         1 UNK         0.0829 
    117 H117       25.0453   32.8781    1.8903 H         1 UNK         0.0813 
    118 H118       25.1394   33.2860    3.5941 H         1 UNK         0.0813 
    119 H119       26.1281   34.1610    2.4336 H         1 UNK         0.0813 
    120 H120       29.3502   32.7583    2.8257 H         1 UNK         0.3038 
    121 H121       29.6782   33.5159    5.6596 H         1 UNK         0.0769 
    122 H122       32.0295   33.9603    4.9523 H         1 UNK         0.0811 
    123 H123       30.9035   34.8149    3.9091 H         1 UNK         0.0811 
    124 H124       31.6901   33.3408    3.3428 H         1 UNK         0.0811 
    125 H125       30.4568   32.0928    7.1721 H         1 UNK         0.3204 
    126 H126       30.3694   29.3039    6.6918 H         1 UNK         0.0748 
    127 H127       31.1094   29.1431    9.0748 H         1 UNK         0.0771 
    128 H128       31.4773   30.8620    9.0872 H         1 UNK         0.0771 
    129 H129       29.8123   30.3113    8.8855 H         1 UNK         0.0771 
    130 H130       31.8399   27.7946    6.2108 H         1 UNK         0.2980 
    131 H131       34.4168   28.5235    5.2959 H         1 UNK         0.0545 
    132 H132       36.8298   27.5929    7.7638 H         1 UNK         0.3459 
    133 H133       36.5667   27.8409    6.0561 H         1 UNK         0.3459 
    134 H134       33.7693   25.6137    5.8935 H         1 UNK         0.0616 
    135 H135       32.7987   26.4260    4.7086 H         1 UNK         0.0616 
    136 H136       36.0560   24.1621    3.3399 H         1 UNK         0.0634 
    137 H137       35.0768   23.9853    4.7684 H         1 UNK         0.0634 
@<TRIPOS>BOND
     1    1    2 1    
     2    1   72 1    
     3    1   73 1    
     4    1   74 1    
     5    2    3 2    
     6    2    4 am   BACKBONE|DICT|INTERRES
     7    4    5 1    
     8    4   75 1    
     9    5    6 1    
    10    5   35 1    
    11    5   76 1    
    12    6    7 1    
    13    6   77 1    
    14    6   78 1    
    15    7    8 1    
    16    8    9 1    
    17    8   79 1    
    18    8   80 1    
    19    9   10 ar   
    20    9   14 ar   
    21   10   11 ar   
    22   10   81 1    
    23   11   12 ar   
    24   11   71 1    
    25   12   13 ar   
    26   12   82 1    
    27   13   14 ar   
    28   13   15 1    
    29   14   83 1    
    30   15   16 1    
    31   15   84 1    
    32   15   85 1    
    33   16   17 1    
    34   17   18 1    
    35   17   86 1    
    36   17   87 1    
    37   18   19 1    
    38   18   37 1    
    39   18   88 1    
    40   19   20 am   BACKBONE|DICT|INTERRES
    41   19   89 1    
    42   20   21 2    
    43   20   22 1    
    44   22   23 1    
    45   22   24 1    
    46   22   90 1    
    47   23   91 1    
    48   23   92 1    
    49   23   93 1    
    50   24   25 am   BACKBONE|DICT|INTERRES
    51   24   94 1    
    52   25   26 2    
    53   25   27 1    
    54   27   28 1    
    55   27   29 1    
    56   27   95 1    
    57   28   96 1    
    58   28   97 1    
    59   28   98 1    
    60   29   30 am   BACKBONE|DICT|INTERRES
    61   29   99 1    
    62   30   31 2    
    63   30   32 1    
    64   32   33 1    
    65   32   34 1    
    66   32  100 1    
    67   33  101 1    
    68   33  102 1    
    69   33  103 1    
    70   34   35 am   BACKBONE|DICT|INTERRES
    71   34  104 1    
    72   35   36 2    
    73   37   38 2    
    74   37   39 am   BACKBONE|DICT|INTERRES
    75   39   40 1    
    76   39  105 1    
    77   40   41 1    
    78   40   42 1    
    79   40  106 1    
    80   41  107 1    
    81   41  108 1    
    82   41  109 1    
    83   42   43 2    
    84   42   44 am   BACKBONE|DICT|INTERRES
    85   44   45 1    
    86   44  110 1    
    87   45   46 1    
    88   45   47 1    
    89   45  111 1    
    90   46  112 1    
    91   46  113 1    
    92   46  114 1    
    93   47   48 2    
    94   47   49 am   BACKBONE|DICT|INTERRES
    95   49   50 1    
    96   49  115 1    
    97   50   51 1    
    98   50   52 1    
    99   50  116 1    
   100   51  117 1    
   101   51  118 1    
   102   51  119 1    
   103   52   53 2    
   104   52   54 am   BACKBONE|DICT|INTERRES
   105   54   55 1    
   106   54  120 1    
   107   55   56 1    
   108   55   57 1    
   109   55  121 1    
   110   56  122 1    
   111   56  123 1    
   112   56  124 1    
   113   57   58 2    
   114   57   59 am   BACKBONE|DICT|INTERRES
   115   59   60 1    
   116   59  125 1    
   117   60   61 1    
   118   60   62 1    
   119   60  126 1    
   120   61  127 1    
   121   61  128 1    
   122   61  129 1    
   123   62   63 2    
   124   62   64 am   BACKBONE|DICT|INTERRES
   125   64   65 1    
   126   64  130 1    
   127   65   66 1    
   128   65   69 1    
   129   65  131 1    
   130   66   67 am   BACKBONE|DICT|INTERRES
   131   66   68 2    
   132   67  132 1    
   133   67  133 1    
   134   69   70 1    
   135   69  134 1    
   136   69  135 1    
   137   70   71 1    
   138   71  136 1    
   139   71  137 1    
@<TRIPOS>SUBSTRUCTURE
     1 UNK         1 GROUP             0       ****    0 ROOT    
