@<TRIPOS>MOLECULE
3R136
137   139    1
SMALL
USER_CHARGES


@<TRIPOS>ATOM
      1 CA         28.7304   18.3657    1.0448 C.3       0 UNK        -0.1979 
      2 C          28.8138   19.1363   -0.2647 C.2       0 UNK         0.4864 
      3 O          29.3155   18.6047   -1.2568 O.2       0 UNK        -0.5359 
      4 N          28.3230   20.3793   -0.2748 N.am      1 UNK        -0.4318 
      5 CA         28.3148   21.2800   -1.4263 C.3       1 UNK         0.0824 
      6 C6         29.6738   21.9948   -1.7011 C.3       12 UNK        -0.0944 
      7 S7         30.7126   22.3509   -0.2388 S.3       12 UNK        -0.2672 
      8 C8         30.2627   24.0647    0.1604 C.3       12 UNK         0.0333 
      9 C9         30.9648   24.5236    1.4313 C.ar      12 UNK        -0.0807 
     10 C10        31.9198   25.5461    1.3950 C.ar      12 UNK        -0.0894 
     11 C11        32.5593   25.9611    2.5689 C.ar      12 UNK        -0.0804 
     12 C12        32.2404   25.3454    3.7827 C.ar      12 UNK        -0.0824 
     13 C13        31.2687   24.3430    3.8357 C.ar      12 UNK        -0.0762 
     14 C14        30.6477   23.9249    2.6547 C.ar      12 UNK        -0.0782 
     15 C15        30.8495   23.7535    5.1746 C.3       12 UNK         0.0230 
     16 S16        29.0855   24.0576    5.5255 S.3       12 UNK        -0.2608 
     17 C17        28.9921   25.8852    5.5899 C.3       12 UNK        -0.0989 
     18 CA         28.7954   26.5671    4.2023 C.3       5 UNK         0.0716 
     19 N          27.7801   25.9386    3.3520 N.am      5 UNK        -0.4135 
     20 C          26.4632   25.8806    3.5825 C.2       4 UNK         0.5031 
     21 O          25.9162   26.3431    4.5856 O.2       4 UNK        -0.5229 
     22 CA         25.6233   25.1951    2.4842 C.3       4 UNK         0.0329 
     23 CB         24.1236   25.5454    2.5832 C.3       4 UNK        -0.2001 
     24 N          26.1062   25.4386    1.1150 N.am      4 UNK        -0.4303 
     25 C          26.2913   26.6320    0.5220 C.2       3 UNK         0.5044 
     26 O          26.2245   27.7077    1.1164 O.2       3 UNK        -0.5152 
     27 CA         26.6343   26.6497   -0.9811 C.3       3 UNK         0.0319 
     28 CB         28.0721   27.1390   -1.1992 C.3       3 UNK        -0.2001 
     29 N          26.4561   25.3612   -1.6546 N.am      3 UNK        -0.4354 
     30 C          25.2707   24.7861   -1.9005 C.2       2 UNK         0.4964 
     31 O          24.1898   25.3155   -1.6404 O.2       2 UNK        -0.5047 
     32 CA         25.2788   23.3802   -2.5267 C.3       2 UNK         0.0288 
     33 CB         24.8807   23.4556   -4.0105 C.3       2 UNK        -0.2113 
     34 N          26.5400   22.6349   -2.4118 N.am      2 UNK        -0.4145 
     35 C          27.1322   22.2495   -1.2712 C.2       1 UNK         0.5006 
     36 O          26.7749   22.6161   -0.1467 O.2       1 UNK        -0.5103 
     37 C          28.6380   28.1007    4.2918 C.2       5 UNK         0.5055 
     38 O          28.9583   28.6903    5.3250 O.2       5 UNK        -0.5220 
     39 N          28.1795   28.7247    3.1983 N.am      6 UNK        -0.4450 
     40 CA         28.0463   30.1727    3.0511 C.3       6 UNK         0.0367 
     41 CB         26.5882   30.5820    3.3350 C.3       6 UNK        -0.1929 
     42 C          28.5396   30.6326    1.6677 C.2       6 UNK         0.5070 
     43 O          27.9977   31.5929    1.1186 O.2       6 UNK        -0.5237 
     44 N          29.5621   29.9550    1.1187 N.am      7 UNK        -0.4739 
     45 CA         30.1942   30.3226   -0.1580 C.3       7 UNK         0.0276 
     46 CB         31.0826   29.1699   -0.6598 C.3       7 UNK        -0.1927 
     47 C          31.0219   31.6174   -0.0581 C.2       7 UNK         0.5013 
     48 O          31.1249   32.3532   -1.0404 O.2       7 UNK        -0.5193 
     49 N          31.5866   31.8653    1.1270 N.am      8 UNK        -0.4253 
     50 CA         32.3722   33.0318    1.5059 C.3       8 UNK         0.0242 
     51 CB         33.8020   32.9074    0.9442 C.3       8 UNK        -0.2000 
     52 C          32.3891   33.0909    3.0371 C.2       8 UNK         0.4948 
     53 O          32.0540   32.0970    3.6877 O.2       8 UNK        -0.5275 
     54 N          32.8313   34.2259    3.5962 N.am      9 UNK        -0.4246 
     55 CA         32.9914   34.4315    5.0441 C.3       9 UNK         0.0261 
     56 CB         33.4256   35.8816    5.3115 C.3       9 UNK        -0.1959 
     57 C          33.9714   33.4433    5.7076 C.2       9 UNK         0.5033 
     58 O          33.7925   33.1014    6.8776 O.2       9 UNK        -0.5390 
     59 N          34.9546   32.9642    4.9316 N.am      10 UNK        -0.4215 
     60 CA         35.9119   31.9212    5.3061 C.3       10 UNK         0.0240 
     61 CB         36.9639   31.7882    4.1923 C.3       10 UNK        -0.1982 
     62 C          35.2736   30.5499    5.6041 C.2       10 UNK         0.4970 
     63 O          35.9031   29.7461    6.2932 O.2       10 UNK        -0.4916 
     64 N          34.0561   30.3000    5.1001 N.am      11 UNK        -0.4279 
     65 CA         33.2782   29.0861    5.3890 C.3       11 UNK         0.1003 
     66 C          32.6496   29.0576    6.8133 C.2       11 UNK         0.5709 
     67 N          32.6398   30.1538    7.5655 N.am      11 UNK        -0.7358 
     68 O          32.1801   28.0102    7.2514 O.2       11 UNK        -0.4999 
     69 C69        32.2027   28.8081    4.3073 C.3       12 UNK        -0.0954 
     70 S70        32.8622   28.7319    2.6086 S.3       12 UNK        -0.2268 
     71 C71        33.6024   27.0688    2.5303 C.3       12 UNK         0.0203 
     72 H72        28.2670   18.9556    1.8355 H         1 UNK         0.0888 
     73 H73        28.1431   17.4577    0.9100 H         1 UNK         0.0888 
     74 H74        29.7287   18.0811    1.3760 H         1 UNK         0.0888 
     75 H75        27.8872   20.7720    0.5502 H         1 UNK         0.3017 
     76 H76        28.0827   20.6708   -2.3033 H         1 UNK         0.0873 
     77 H77        29.5413   22.9059   -2.2878 H         1 UNK         0.0745 
     78 H78        30.2745   21.3414   -2.3357 H         1 UNK         0.0745 
     79 H79        30.5210   24.7078   -0.6822 H         1 UNK         0.0705 
     80 H80        29.1830   24.1354    0.2974 H         1 UNK         0.0705 
     81 H81        32.1687   26.0203    0.4554 H         1 UNK         0.1334 
     82 H82        32.7262   25.6717    4.6924 H         1 UNK         0.1417 
     83 H83        29.8992   23.1446    2.6916 H         1 UNK         0.1562 
     84 H84        31.4505   24.1587    5.9903 H         1 UNK         0.0748 
     85 H85        31.0291   22.6776    5.1623 H         1 UNK         0.0748 
     86 H86        29.8932   26.2658    6.0755 H         1 UNK         0.0940 
     87 H87        28.1642   26.1458    6.2517 H         1 UNK         0.0940 
     88 H88        29.7226   26.4534    3.6472 H         1 UNK         0.0703 
     89 H89        28.1239   25.5141    2.5041 H         1 UNK         0.3081 
     90 H90        25.7238   24.1221    2.6550 H         1 UNK         0.0719 
     91 H91        23.5450   25.0314    1.8155 H         1 UNK         0.0809 
     92 H92        23.9531   26.6167    2.4701 H         1 UNK         0.0809 
     93 H93        23.7128   25.2496    3.5493 H         1 UNK         0.0809 
     94 H94        26.2364   24.6057    0.5505 H         1 UNK         0.2990 
     95 H95        25.9600   27.3683   -1.4519 H         1 UNK         0.0690 
     96 H96        28.3236   27.1878   -2.2589 H         1 UNK         0.0788 
     97 H97        28.7991   26.4947   -0.7062 H         1 UNK         0.0788 
     98 H98        28.1950   28.1440   -0.7947 H         1 UNK         0.0788 
     99 H99        27.2920   24.8618   -1.9185 H         1 UNK         0.2993 
    100 H100       24.5161   22.8031   -1.9992 H         1 UNK         0.0949 
    101 H101       23.9284   23.9734   -4.1359 H         1 UNK         0.0767 
    102 H102       25.6239   23.9938   -4.6004 H         1 UNK         0.0767 
    103 H103       24.7628   22.4614   -4.4423 H         1 UNK         0.0767 
    104 H104       26.9251   22.2990   -3.2834 H         1 UNK         0.3013 
    105 H105       27.8424   28.1773    2.4133 H         1 UNK         0.3121 
    106 H106       28.6891   30.6792    3.7745 H         1 UNK         0.0774 
    107 H107       26.4650   31.6646    3.2883 H         1 UNK         0.0815 
    108 H108       25.9023   30.1402    2.6110 H         1 UNK         0.0815 
    109 H109       26.2749   30.2643    4.3295 H         1 UNK         0.0815 
    110 H110       29.9754   29.1910    1.6341 H         1 UNK         0.2987 
    111 H111       29.4012   30.4879   -0.8909 H         1 UNK         0.0949 
    112 H112       32.0042   29.0843   -0.0859 H         1 UNK         0.0806 
    113 H113       30.5778   28.2073   -0.6142 H         1 UNK         0.0806 
    114 H114       31.3719   29.3355   -1.6982 H         1 UNK         0.0806 
    115 H115       31.4285   31.2232    1.8952 H         1 UNK         0.3010 
    116 H116       31.8896   33.9329    1.1217 H         1 UNK         0.0829 
    117 H117       33.7981   32.8492   -0.1443 H         1 UNK         0.0813 
    118 H118       34.4124   33.7696    1.2146 H         1 UNK         0.0813 
    119 H119       34.3050   32.0158    1.3221 H         1 UNK         0.0813 
    120 H120       33.0861   34.9988    2.9973 H         1 UNK         0.3038 
    121 H121       32.0146   34.2755    5.5071 H         1 UNK         0.0769 
    122 H122       33.5292   36.0662    6.3819 H         1 UNK         0.0811 
    123 H123       32.6913   36.5928    4.9329 H         1 UNK         0.0811 
    124 H124       34.3861   36.1092    4.8475 H         1 UNK         0.0811 
    125 H125       35.0169   33.3138    3.9871 H         1 UNK         0.3204 
    126 H126       36.4150   32.2481    6.2185 H         1 UNK         0.0748 
    127 H127       37.7161   31.0417    4.4521 H         1 UNK         0.0771 
    128 H128       36.5141   31.4814    3.2469 H         1 UNK         0.0771 
    129 H129       37.4897   32.7288    4.0265 H         1 UNK         0.0771 
    130 H130       33.5728   31.0081    4.5591 H         1 UNK         0.2980 
    131 H131       33.9735   28.2455    5.3658 H         1 UNK         0.0545 
    132 H132       33.0307   31.0226    7.2257 H         1 UNK         0.3459 
    133 H133       32.2346   30.1121    8.4868 H         1 UNK         0.3459 
    134 H134       31.4452   29.5928    4.3288 H         1 UNK         0.0616 
    135 H135       31.6698   27.8832    4.5218 H         1 UNK         0.0616 
    136 H136       34.1795   26.9912    1.6079 H         1 UNK         0.0634 
    137 H137       34.3195   26.9506    3.3436 H         1 UNK         0.0634 
@<TRIPOS>BOND
     1    1    2 1    
     2    1   72 1    
     3    1   73 1    
     4    1   74 1    
     5    2    3 2    
     6    2    4 am   BACKBONE|DICT|INTERRES
     7    4    5 1    
     8    4   75 1    
     9    5    6 1    
    10    5   35 1    
    11    5   76 1    
    12    6    7 1    
    13    6   77 1    
    14    6   78 1    
    15    7    8 1    
    16    8    9 1    
    17    8   79 1    
    18    8   80 1    
    19    9   10 ar   
    20    9   14 ar   
    21   10   11 ar   
    22   10   81 1    
    23   11   12 ar   
    24   11   71 1    
    25   12   13 ar   
    26   12   82 1    
    27   13   14 ar   
    28   13   15 1    
    29   14   83 1    
    30   15   16 1    
    31   15   84 1    
    32   15   85 1    
    33   16   17 1    
    34   17   18 1    
    35   17   86 1    
    36   17   87 1    
    37   18   19 1    
    38   18   37 1    
    39   18   88 1    
    40   19   20 am   BACKBONE|DICT|INTERRES
    41   19   89 1    
    42   20   21 2    
    43   20   22 1    
    44   22   23 1    
    45   22   24 1    
    46   22   90 1    
    47   23   91 1    
    48   23   92 1    
    49   23   93 1    
    50   24   25 am   BACKBONE|DICT|INTERRES
    51   24   94 1    
    52   25   26 2    
    53   25   27 1    
    54   27   28 1    
    55   27   29 1    
    56   27   95 1    
    57   28   96 1    
    58   28   97 1    
    59   28   98 1    
    60   29   30 am   BACKBONE|DICT|INTERRES
    61   29   99 1    
    62   30   31 2    
    63   30   32 1    
    64   32   33 1    
    65   32   34 1    
    66   32  100 1    
    67   33  101 1    
    68   33  102 1    
    69   33  103 1    
    70   34   35 am   BACKBONE|DICT|INTERRES
    71   34  104 1    
    72   35   36 2    
    73   37   38 2    
    74   37   39 am   BACKBONE|DICT|INTERRES
    75   39   40 1    
    76   39  105 1    
    77   40   41 1    
    78   40   42 1    
    79   40  106 1    
    80   41  107 1    
    81   41  108 1    
    82   41  109 1    
    83   42   43 2    
    84   42   44 am   BACKBONE|DICT|INTERRES
    85   44   45 1    
    86   44  110 1    
    87   45   46 1    
    88   45   47 1    
    89   45  111 1    
    90   46  112 1    
    91   46  113 1    
    92   46  114 1    
    93   47   48 2    
    94   47   49 am   BACKBONE|DICT|INTERRES
    95   49   50 1    
    96   49  115 1    
    97   50   51 1    
    98   50   52 1    
    99   50  116 1    
   100   51  117 1    
   101   51  118 1    
   102   51  119 1    
   103   52   53 2    
   104   52   54 am   BACKBONE|DICT|INTERRES
   105   54   55 1    
   106   54  120 1    
   107   55   56 1    
   108   55   57 1    
   109   55  121 1    
   110   56  122 1    
   111   56  123 1    
   112   56  124 1    
   113   57   58 2    
   114   57   59 am   BACKBONE|DICT|INTERRES
   115   59   60 1    
   116   59  125 1    
   117   60   61 1    
   118   60   62 1    
   119   60  126 1    
   120   61  127 1    
   121   61  128 1    
   122   61  129 1    
   123   62   63 2    
   124   62   64 am   BACKBONE|DICT|INTERRES
   125   64   65 1    
   126   64  130 1    
   127   65   66 1    
   128   65   69 1    
   129   65  131 1    
   130   66   67 am   BACKBONE|DICT|INTERRES
   131   66   68 2    
   132   67  132 1    
   133   67  133 1    
   134   69   70 1    
   135   69  134 1    
   136   69  135 1    
   137   70   71 1    
   138   71  136 1    
   139   71  137 1    
@<TRIPOS>SUBSTRUCTURE
     1 UNK         1 GROUP             0       ****    0 ROOT    
