@<TRIPOS>MOLECULE
3R136
137   139    1
SMALL
USER_CHARGES


@<TRIPOS>ATOM
      1 CA         26.7343   21.9646    2.1017 C.3       0 UNK        -0.1979 
      2 C          27.6435   22.4068    0.9657 C.2       0 UNK         0.4864 
      3 O          27.5666   21.8515   -0.1313 O.2       0 UNK        -0.5359 
      4 N          28.4929   23.4148    1.2091 N.am      1 UNK        -0.4318 
      5 CA         29.3968   24.0150    0.2220 C.3       1 UNK         0.0824 
      6 C6         30.3894   25.0022    0.8849 C.3       12 UNK        -0.0944 
      7 S7         31.8317   24.1557    1.6172 S.3       12 UNK        -0.2672 
      8 C8         31.1847   23.3966    3.1480 C.3       12 UNK         0.0333 
      9 C9         30.5596   24.4040    4.1042 C.ar      12 UNK        -0.0807 
     10 C10        31.3078   25.4897    4.5663 C.ar      12 UNK        -0.0894 
     11 C11        30.7473   26.4164    5.4483 C.ar      12 UNK        -0.0804 
     12 C12        29.4254   26.2545    5.8698 C.ar      12 UNK        -0.0824 
     13 C13        28.6678   25.1667    5.4235 C.ar      12 UNK        -0.0762 
     14 C14        29.2448   24.2373    4.5522 C.ar      12 UNK        -0.0782 
     15 C15        27.2305   24.9905    5.8974 C.3       12 UNK         0.0230 
     16 S16        26.0154   25.2068    4.5549 S.3       12 UNK        -0.2608 
     17 C17        26.3936   26.8885    3.9520 C.3       12 UNK        -0.0989 
     18 CA         26.9316   26.8455    2.4958 C.3       5 UNK         0.0716 
     19 N          25.9541   26.3583    1.5101 N.am      5 UNK        -0.4135 
     20 C          24.8024   26.9572    1.1684 C.2       4 UNK         0.5031 
     21 O          24.3316   27.9280    1.7624 O.2       4 UNK        -0.5229 
     22 CA         24.0523   26.4251   -0.0641 C.3       4 UNK         0.0329 
     23 CB         24.0216   27.4920   -1.1739 C.3       4 UNK        -0.2001 
     24 N          24.6327   25.1993   -0.6216 N.am      4 UNK        -0.4303 
     25 C          23.9342   24.0983   -0.9364 C.2       3 UNK         0.5044 
     26 O          22.7379   23.9574   -0.6767 O.2       3 UNK        -0.5152 
     27 CA         24.6791   22.9509   -1.6551 C.3       3 UNK         0.0319 
     28 CB         23.8295   22.3139   -2.7754 C.3       3 UNK        -0.2001 
     29 N          26.0176   23.3059   -2.1469 N.am      3 UNK        -0.4354 
     30 C          26.3430   24.2142   -3.0834 C.2       2 UNK         0.4964 
     31 O          25.5131   24.8390   -3.7446 O.2       2 UNK        -0.5047 
     32 CA         27.8482   24.5029   -3.2871 C.3       2 UNK         0.0288 
     33 CB         28.1048   25.9522   -3.7504 C.3       2 UNK        -0.2113 
     34 N          28.6739   24.1799   -2.1130 N.am      2 UNK        -0.4145 
     35 C          28.5617   24.6949   -0.8789 C.2       1 UNK         0.5006 
     36 O          27.7833   25.6028   -0.5700 O.2       1 UNK        -0.5103 
     37 C          27.5472   28.1773    2.0118 C.2       5 UNK         0.5055 
     38 O          27.6040   29.1557    2.7581 O.2       5 UNK        -0.5220 
     39 N          27.9664   28.1852    0.7373 N.am      6 UNK        -0.4450 
     40 CA         28.4235   29.3646   -0.0017 C.3       6 UNK         0.0367 
     41 CB         28.3889   29.0443   -1.5042 C.3       6 UNK        -0.1929 
     42 C          29.8150   29.8852    0.3988 C.2       6 UNK         0.5070 
     43 O          30.1676   30.9977    0.0054 O.2       6 UNK        -0.5237 
     44 N          30.5882   29.1018    1.1630 N.am      7 UNK        -0.4739 
     45 CA         31.9492   29.4149    1.6191 C.3       7 UNK         0.0276 
     46 CB         32.6555   28.1000    1.9977 C.3       7 UNK        -0.1927 
     47 C          31.9993   30.4693    2.7489 C.2       7 UNK         0.5013 
     48 O          32.6998   30.2791    3.7462 O.2       7 UNK        -0.5193 
     49 N          31.2650   31.5752    2.5740 N.am      8 UNK        -0.4253 
     50 CA         31.2131   32.7227    3.4795 C.3       8 UNK         0.0242 
     51 CB         30.1664   33.7272    2.9701 C.3       8 UNK        -0.2000 
     52 C          32.5968   33.3782    3.6091 C.2       8 UNK         0.4948 
     53 O          33.1561   33.8148    2.6011 O.2       8 UNK        -0.5275 
     54 N          33.1306   33.3812    4.8389 N.am      9 UNK        -0.4246 
     55 CA         34.4844   33.8096    5.2205 C.3       9 UNK         0.0261 
     56 CB         34.6924   35.3155    4.9481 C.3       9 UNK        -0.1959 
     57 C          35.6176   32.9406    4.6284 C.2       9 UNK         0.5033 
     58 O          36.7748   33.3634    4.6601 O.2       9 UNK        -0.5390 
     59 N          35.2863   31.7395    4.1338 N.am      10 UNK        -0.4215 
     60 CA         36.2219   30.7542    3.5833 C.3       10 UNK         0.0240 
     61 CB         36.0485   30.7019    2.0533 C.3       10 UNK        -0.1982 
     62 C          36.0227   29.3731    4.2355 C.2       10 UNK         0.4970 
     63 O          36.4489   28.3663    3.6672 O.2       10 UNK        -0.4916 
     64 N          35.3617   29.3439    5.3998 N.am      11 UNK        -0.4279 
     65 CA         35.0352   28.1355    6.1636 C.3       11 UNK         0.1003 
     66 C          36.2750   27.4621    6.8161 C.2       11 UNK         0.5709 
     67 N          36.1835   26.1787    7.1360 N.am      11 UNK        -0.7358 
     68 O          37.3008   28.0941    7.0651 O.2       11 UNK        -0.4999 
     69 C69        33.9090   28.4319    7.1953 C.3       12 UNK        -0.0954 
     70 S70        32.6975   27.0767    7.2790 S.3       12 UNK        -0.2268 
     71 C71        31.5783   27.5880    5.9404 C.3       12 UNK         0.0203 
     72 H72        26.7388   22.6725    2.9293 H         1 UNK         0.0888 
     73 H73        25.7080   21.8742    1.7469 H         1 UNK         0.0888 
     74 H74        27.0510   20.9926    2.4786 H         1 UNK         0.0888 
     75 H75        28.5062   23.8424    2.1215 H         1 UNK         0.3017 
     76 H76        29.9689   23.2068   -0.2395 H         1 UNK         0.0873 
     77 H77        29.9039   25.6276    1.6343 H         1 UNK         0.0745 
     78 H78        30.7950   25.6948    0.1442 H         1 UNK         0.0745 
     79 H79        30.4803   22.6060    2.8881 H         1 UNK         0.0705 
     80 H80        32.0107   22.9017    3.6603 H         1 UNK         0.0705 
     81 H81        32.3322   25.6108    4.2409 H         1 UNK         0.1334 
     82 H82        28.9901   26.9722    6.5519 H         1 UNK         0.1417 
     83 H83        28.6659   23.3819    4.2345 H         1 UNK         0.1562 
     84 H84        26.9970   25.6918    6.7002 H         1 UNK         0.0748 
     85 H85        27.1128   23.9927    6.3223 H         1 UNK         0.0748 
     86 H86        27.1188   27.3560    4.6191 H         1 UNK         0.0940 
     87 H87        25.4952   27.5019    4.0261 H         1 UNK         0.0940 
     88 H88        27.7560   26.1327    2.4820 H         1 UNK         0.0703 
     89 H89        26.2800   25.6026    0.9247 H         1 UNK         0.3081 
     90 H90        23.0268   26.2447    0.2644 H         1 UNK         0.0719 
     91 H91        23.5742   28.4212   -0.8181 H         1 UNK         0.0809 
     92 H92        25.0245   27.7270   -1.5326 H         1 UNK         0.0809 
     93 H93        23.4325   27.1568   -2.0277 H         1 UNK         0.0809 
     94 H94        25.6063   25.2419   -0.8963 H         1 UNK         0.2990 
     95 H95        24.8395   22.1848   -0.8953 H         1 UNK         0.0690 
     96 H96        24.3630   21.4977   -3.2625 H         1 UNK         0.0788 
     97 H97        23.5551   23.0405   -3.5406 H         1 UNK         0.0788 
     98 H98        22.9026   21.8993   -2.3772 H         1 UNK         0.0788 
     99 H99        26.7733   22.8388   -1.6521 H         1 UNK         0.2993 
    100 H100       28.1766   23.8358   -4.0857 H         1 UNK         0.0949 
    101 H101       27.6692   26.6746   -3.0612 H         1 UNK         0.0767 
    102 H102       29.1707   26.1639   -3.8347 H         1 UNK         0.0767 
    103 H103       27.6603   26.1339   -4.7297 H         1 UNK         0.0767 
    104 H104       29.3222   23.4153   -2.2464 H         1 UNK         0.3013 
    105 H105       27.8828   27.3249    0.2005 H         1 UNK         0.3121 
    106 H106       27.7152   30.1738    0.1891 H         1 UNK         0.0774 
    107 H107       29.0651   28.2261   -1.7550 H         1 UNK         0.0815 
    108 H108       27.3855   28.7667   -1.8266 H         1 UNK         0.0815 
    109 H109       28.6887   29.9088   -2.0981 H         1 UNK         0.0815 
    110 H110       30.2003   28.2247    1.4746 H         1 UNK         0.2987 
    111 H111       32.4970   29.8477    0.7791 H         1 UNK         0.0949 
    112 H112       32.7188   27.4240    1.1449 H         1 UNK         0.0806 
    113 H113       33.6756   28.2768    2.3413 H         1 UNK         0.0806 
    114 H114       32.1267   27.5798    2.7940 H         1 UNK         0.0806 
    115 H115       30.7615   31.6555    1.6950 H         1 UNK         0.3010 
    116 H116       30.8910   32.3589    4.4575 H         1 UNK         0.0829 
    117 H117       30.4151   34.0994    1.9752 H         1 UNK         0.0813 
    118 H118       30.0980   34.5899    3.6340 H         1 UNK         0.0813 
    119 H119       29.1750   33.2762    2.9206 H         1 UNK         0.0813 
    120 H120       32.5815   32.9836    5.5894 H         1 UNK         0.3038 
    121 H121       34.5440   33.6671    6.3006 H         1 UNK         0.0769 
    122 H122       33.8904   35.9126    5.3819 H         1 UNK         0.0811 
    123 H123       34.7345   35.5336    3.8806 H         1 UNK         0.0811 
    124 H124       35.6275   35.6673    5.3855 H         1 UNK         0.0811 
    125 H125       34.3095   31.4565    4.1298 H         1 UNK         0.3204 
    126 H126       37.2511   31.0455    3.8017 H         1 UNK         0.0748 
    127 H127       35.0499   30.3660    1.7736 H         1 UNK         0.0771 
    128 H128       36.2081   31.6828    1.6050 H         1 UNK         0.0771 
    129 H129       36.7655   30.0186    1.5966 H         1 UNK         0.0771 
    130 H130       35.0895   30.2192    5.8179 H         1 UNK         0.2980 
    131 H131       34.6544   27.4279    5.4237 H         1 UNK         0.0545 
    132 H132       35.3326   25.6644    6.9677 H         1 UNK         0.3459 
    133 H133       36.9696   25.7227    7.5718 H         1 UNK         0.3459 
    134 H134       33.3636   29.3412    6.9352 H         1 UNK         0.0616 
    135 H135       34.3104   28.6132    8.1943 H         1 UNK         0.0616 
    136 H136       32.1616   27.9897    5.1118 H         1 UNK         0.0634 
    137 H137       30.9405   28.4012    6.2902 H         1 UNK         0.0634 
@<TRIPOS>BOND
     1    1    2 1    
     2    1   72 1    
     3    1   73 1    
     4    1   74 1    
     5    2    3 2    
     6    2    4 am   BACKBONE|DICT|INTERRES
     7    4    5 1    
     8    4   75 1    
     9    5    6 1    
    10    5   35 1    
    11    5   76 1    
    12    6    7 1    
    13    6   77 1    
    14    6   78 1    
    15    7    8 1    
    16    8    9 1    
    17    8   79 1    
    18    8   80 1    
    19    9   10 ar   
    20    9   14 ar   
    21   10   11 ar   
    22   10   81 1    
    23   11   12 ar   
    24   11   71 1    
    25   12   13 ar   
    26   12   82 1    
    27   13   14 ar   
    28   13   15 1    
    29   14   83 1    
    30   15   16 1    
    31   15   84 1    
    32   15   85 1    
    33   16   17 1    
    34   17   18 1    
    35   17   86 1    
    36   17   87 1    
    37   18   19 1    
    38   18   37 1    
    39   18   88 1    
    40   19   20 am   BACKBONE|DICT|INTERRES
    41   19   89 1    
    42   20   21 2    
    43   20   22 1    
    44   22   23 1    
    45   22   24 1    
    46   22   90 1    
    47   23   91 1    
    48   23   92 1    
    49   23   93 1    
    50   24   25 am   BACKBONE|DICT|INTERRES
    51   24   94 1    
    52   25   26 2    
    53   25   27 1    
    54   27   28 1    
    55   27   29 1    
    56   27   95 1    
    57   28   96 1    
    58   28   97 1    
    59   28   98 1    
    60   29   30 am   BACKBONE|DICT|INTERRES
    61   29   99 1    
    62   30   31 2    
    63   30   32 1    
    64   32   33 1    
    65   32   34 1    
    66   32  100 1    
    67   33  101 1    
    68   33  102 1    
    69   33  103 1    
    70   34   35 am   BACKBONE|DICT|INTERRES
    71   34  104 1    
    72   35   36 2    
    73   37   38 2    
    74   37   39 am   BACKBONE|DICT|INTERRES
    75   39   40 1    
    76   39  105 1    
    77   40   41 1    
    78   40   42 1    
    79   40  106 1    
    80   41  107 1    
    81   41  108 1    
    82   41  109 1    
    83   42   43 2    
    84   42   44 am   BACKBONE|DICT|INTERRES
    85   44   45 1    
    86   44  110 1    
    87   45   46 1    
    88   45   47 1    
    89   45  111 1    
    90   46  112 1    
    91   46  113 1    
    92   46  114 1    
    93   47   48 2    
    94   47   49 am   BACKBONE|DICT|INTERRES
    95   49   50 1    
    96   49  115 1    
    97   50   51 1    
    98   50   52 1    
    99   50  116 1    
   100   51  117 1    
   101   51  118 1    
   102   51  119 1    
   103   52   53 2    
   104   52   54 am   BACKBONE|DICT|INTERRES
   105   54   55 1    
   106   54  120 1    
   107   55   56 1    
   108   55   57 1    
   109   55  121 1    
   110   56  122 1    
   111   56  123 1    
   112   56  124 1    
   113   57   58 2    
   114   57   59 am   BACKBONE|DICT|INTERRES
   115   59   60 1    
   116   59  125 1    
   117   60   61 1    
   118   60   62 1    
   119   60  126 1    
   120   61  127 1    
   121   61  128 1    
   122   61  129 1    
   123   62   63 2    
   124   62   64 am   BACKBONE|DICT|INTERRES
   125   64   65 1    
   126   64  130 1    
   127   65   66 1    
   128   65   69 1    
   129   65  131 1    
   130   66   67 am   BACKBONE|DICT|INTERRES
   131   66   68 2    
   132   67  132 1    
   133   67  133 1    
   134   69   70 1    
   135   69  134 1    
   136   69  135 1    
   137   70   71 1    
   138   71  136 1    
   139   71  137 1    
@<TRIPOS>SUBSTRUCTURE
     1 UNK         1 GROUP             0       ****    0 ROOT    
