@<TRIPOS>MOLECULE
3R136
137   139    1
SMALL
USER_CHARGES


@<TRIPOS>ATOM
      1 CA         33.8668   25.4714    0.0404 C.3       0 UNK        -0.1979 
      2 C          32.4509   24.9234    0.1288 C.2       0 UNK         0.4864 
      3 O          31.5720   25.5922    0.6728 O.2       0 UNK        -0.5359 
      4 N          32.2133   23.7180   -0.4071 N.am      1 UNK        -0.4318 
      5 CA         30.9322   22.9966   -0.3600 C.3       1 UNK         0.0824 
      6 C6         31.1118   21.4610   -0.5321 C.3       12 UNK        -0.0944 
      7 S7         32.4265   20.7346    0.5092 S.3       12 UNK        -0.2672 
      8 C8         31.5464   20.3674    2.0641 C.3       12 UNK         0.0333 
      9 C9         31.1292   21.6273    2.8138 C.ar      12 UNK        -0.0807 
     10 C10        32.0718   22.6139    3.1217 C.ar      12 UNK        -0.0894 
     11 C11        31.6916   23.7888    3.7762 C.ar      12 UNK        -0.0804 
     12 C12        30.3531   23.9599    4.1472 C.ar      12 UNK        -0.0824 
     13 C13        29.4058   22.9677    3.8769 C.ar      12 UNK        -0.0762 
     14 C14        29.7982   21.8081    3.2008 C.ar      12 UNK        -0.0782 
     15 C15        27.9627   23.1339    4.3300 C.3       12 UNK         0.0230 
     16 S16        27.0763   24.3740    3.3375 S.3       12 UNK        -0.2608 
     17 C17        27.1295   25.8427    4.4262 C.3       12 UNK        -0.0989 
     18 CA         27.3260   27.1587    3.6360 C.3       5 UNK         0.0716 
     19 N          26.2878   27.3281    2.6191 N.am      5 UNK        -0.4135 
     20 C          26.2814   28.2538    1.6554 C.2       4 UNK         0.5031 
     21 O          27.1662   29.0979    1.5167 O.2       4 UNK        -0.5229 
     22 CA         25.1231   28.1643    0.6422 C.3       4 UNK         0.0329 
     23 CB         25.0968   29.3575   -0.3309 C.3       4 UNK        -0.2001 
     24 N          25.2399   26.9263   -0.1283 N.am      4 UNK        -0.4303 
     25 C          24.9154   25.7014    0.3036 C.2       3 UNK         0.5044 
     26 O          24.2694   25.4993    1.3325 O.2       3 UNK        -0.5152 
     27 CA         25.4764   24.5005   -0.4818 C.3       3 UNK         0.0319 
     28 CB         24.5173   24.0549   -1.6029 C.3       3 UNK        -0.2001 
     29 N          26.8529   24.7086   -0.9669 N.am      3 UNK        -0.4354 
     30 C          27.2862   25.5285   -1.9374 C.2       2 UNK         0.4964 
     31 O          26.5326   26.2101   -2.6331 O.2       2 UNK        -0.5047 
     32 CA         28.8056   25.6948   -2.1235 C.3       2 UNK         0.0288 
     33 CB         29.2045   27.1695   -1.9316 C.3       2 UNK        -0.2113 
     34 N          29.6236   24.8843   -1.2187 N.am      2 UNK        -0.4145 
     35 C          29.9103   23.5854   -1.3625 C.2       1 UNK         0.5006 
     36 O          29.4248   22.8817   -2.2504 O.2       1 UNK        -0.5103 
     37 C          27.3685   28.3689    4.5908 C.2       5 UNK         0.5055 
     38 O          26.3196   28.9385    4.9021 O.2       5 UNK        -0.5220 
     39 N          28.5804   28.7175    5.0413 N.am      6 UNK        -0.4450 
     40 CA         28.9436   29.8453    5.9084 C.3       6 UNK         0.0367 
     41 CB         28.1243   29.8755    7.2160 C.3       6 UNK        -0.1929 
     42 C          28.9637   31.2100    5.1934 C.2       6 UNK         0.5070 
     43 O          29.2593   32.2170    5.8395 O.2       6 UNK        -0.5237 
     44 N          28.6902   31.2441    3.8814 N.am      7 UNK        -0.4739 
     45 CA         28.7626   32.4430    3.0470 C.3       7 UNK         0.0276 
     46 CB         27.8818   32.2517    1.7995 C.3       7 UNK        -0.1927 
     47 C          30.2227   32.7591    2.6813 C.2       7 UNK         0.5013 
     48 O          30.6724   32.4009    1.5899 O.2       7 UNK        -0.5193 
     49 N          30.9352   33.4060    3.6155 N.am      8 UNK        -0.4253 
     50 CA         32.3115   33.9065    3.5088 C.3       8 UNK         0.0242 
     51 CB         32.3609   35.1459    2.5868 C.3       8 UNK        -0.2000 
     52 C          33.3055   32.8019    3.1073 C.2       8 UNK         0.4948 
     53 O          33.7165   32.0232    3.9682 O.2       8 UNK        -0.5275 
     54 N          33.6415   32.7306    1.8110 N.am      9 UNK        -0.4246 
     55 CA         34.4946   31.7071    1.2020 C.3       9 UNK         0.0261 
     56 CB         34.7031   32.0381   -0.2842 C.3       9 UNK        -0.1959 
     57 C          33.9631   30.2713    1.3638 C.2       9 UNK         0.5033 
     58 O          34.7694   29.3415    1.4197 O.2       9 UNK        -0.5390 
     59 N          32.6386   30.1030    1.4960 N.am      10 UNK        -0.4215 
     60 CA         31.9815   28.8276    1.8026 C.3       10 UNK         0.0240 
     61 CB         30.5259   28.8831    1.3060 C.3       10 UNK        -0.1982 
     62 C          32.0873   28.4638    3.3003 C.2       10 UNK         0.4970 
     63 O          31.0709   28.1655    3.9286 O.2       10 UNK        -0.4916 
     64 N          33.3170   28.5122    3.8321 N.am      11 UNK        -0.4279 
     65 CA         33.7222   28.3088    5.2337 C.3       11 UNK         0.1003 
     66 C          32.9201   29.1216    6.2943 C.2       11 UNK         0.5709 
     67 N          32.6284   30.3899    6.0339 N.am      11 UNK        -0.7358 
     68 O          32.5843   28.6270    7.3677 O.2       11 UNK        -0.4999 
     69 C69        34.0088   26.8207    5.5941 C.3       12 UNK        -0.0954 
     70 S70        32.5700   25.6991    5.6394 S.3       12 UNK        -0.2268 
     71 C71        32.7321   24.8768    4.0215 C.3       12 UNK         0.0203 
     72 H72        34.2547   25.6668    1.0398 H         1 UNK         0.0888 
     73 H73        34.5427   24.7763   -0.4572 H         1 UNK         0.0888 
     74 H74        33.8715   26.4092   -0.5146 H         1 UNK         0.0888 
     75 H75        32.9686   23.2166   -0.8523 H         1 UNK         0.3017 
     76 H76        30.5012   23.1619    0.6288 H         1 UNK         0.0873 
     77 H77        30.1725   20.9434   -0.3286 H         1 UNK         0.0745 
     78 H78        31.3673   21.2243   -1.5668 H         1 UNK         0.0745 
     79 H79        30.6853   19.7343    1.8447 H         1 UNK         0.0705 
     80 H80        32.2036   19.7811    2.7076 H         1 UNK         0.0705 
     81 H81        33.1011   22.4767    2.8195 H         1 UNK         0.1334 
     82 H82        30.0483   24.8686    4.6457 H         1 UNK         0.1417 
     83 H83        29.0661   21.0434    2.9785 H         1 UNK         0.1562 
     84 H84        27.9325   23.3938    5.3890 H         1 UNK         0.0748 
     85 H85        27.4284   22.1866    4.2435 H         1 UNK         0.0748 
     86 H86        27.9297   25.7260    5.1588 H         1 UNK         0.0940 
     87 H87        26.1998   25.8725    4.9984 H         1 UNK         0.0940 
     88 H88        28.2837   27.1038    3.1127 H         1 UNK         0.0703 
     89 H89        25.5403   26.6445    2.6259 H         1 UNK         0.3081 
     90 H90        24.1849   28.1588    1.2011 H         1 UNK         0.0719 
     91 H91        26.0045   29.4074   -0.9340 H         1 UNK         0.0809 
     92 H92        24.2462   29.2966   -1.0098 H         1 UNK         0.0809 
     93 H93        25.0134   30.3003    0.2114 H         1 UNK         0.0809 
     94 H94        25.7563   26.9794   -1.0006 H         1 UNK         0.2990 
     95 H95        25.5463   23.6756    0.2294 H         1 UNK         0.0690 
     96 H96        24.9085   23.1903   -2.1390 H         1 UNK         0.0788 
     97 H97        24.3343   24.8470   -2.3293 H         1 UNK         0.0788 
     98 H98        23.5488   23.7699   -1.1899 H         1 UNK         0.0788 
     99 H99        27.5648   24.2306   -0.4334 H         1 UNK         0.2993 
    100 H100       29.0368   25.4053   -3.1509 H         1 UNK         0.0949 
    101 H101       28.7015   27.8124   -2.6553 H         1 UNK         0.0767 
    102 H102       28.9378   27.5292   -0.9368 H         1 UNK         0.0767 
    103 H103       30.2770   27.3140   -2.0646 H         1 UNK         0.0767 
    104 H104       30.1115   25.3757   -0.4712 H         1 UNK         0.3013 
    105 H105       29.3949   28.2319    4.6636 H         1 UNK         0.3121 
    106 H106       29.9769   29.6514    6.1924 H         1 UNK         0.0774 
    107 H107       27.0905   30.1755    7.0449 H         1 UNK         0.0815 
    108 H108       28.5502   30.5893    7.9221 H         1 UNK         0.0815 
    109 H109       28.1190   28.9018    7.7054 H         1 UNK         0.0815 
    110 H110       28.4610   30.3797    3.4097 H         1 UNK         0.2987 
    111 H111       28.3594   33.2911    3.6053 H         1 UNK         0.0949 
    112 H112       27.8639   33.1590    1.1949 H         1 UNK         0.0806 
    113 H113       28.2481   31.4471    1.1611 H         1 UNK         0.0806 
    114 H114       26.8515   32.0194    2.0698 H         1 UNK         0.0806 
    115 H115       30.4904   33.5358    4.5172 H         1 UNK         0.3010 
    116 H116       32.6042   34.2295    4.5092 H         1 UNK         0.0829 
    117 H117       31.9790   34.9388    1.5865 H         1 UNK         0.0813 
    118 H118       31.7643   35.9596    2.9994 H         1 UNK         0.0813 
    119 H119       33.3804   35.5203    2.4834 H         1 UNK         0.0813 
    120 H120       33.2079   33.3894    1.1802 H         1 UNK         0.3038 
    121 H121       35.4638   31.7513    1.7031 H         1 UNK         0.0769 
    122 H122       35.3567   31.3049   -0.7591 H         1 UNK         0.0811 
    123 H123       33.7606   32.0386   -0.8336 H         1 UNK         0.0811 
    124 H124       35.1689   33.0153   -0.4129 H         1 UNK         0.0811 
    125 H125       32.0414   30.9258    1.4725 H         1 UNK         0.3204 
    126 H126       32.4869   28.0357    1.2474 H         1 UNK         0.0748 
    127 H127       30.0308   27.9202    1.4385 H         1 UNK         0.0771 
    128 H128       30.4777   29.1266    0.2450 H         1 UNK         0.0771 
    129 H129       29.9426   29.6286    1.8453 H         1 UNK         0.0771 
    130 H130       34.0655   28.7762    3.2004 H         1 UNK         0.2980 
    131 H131       34.7021   28.7860    5.2743 H         1 UNK         0.0545 
    132 H132       32.1311   30.9285    6.7235 H         1 UNK         0.3459 
    133 H133       32.9783   30.8465    5.1949 H         1 UNK         0.3459 
    134 H134       34.7483   26.4191    4.9001 H         1 UNK         0.0616 
    135 H135       34.4869   26.7701    6.5737 H         1 UNK         0.0616 
    136 H136       32.6458   25.6213    3.2311 H         1 UNK         0.0634 
    137 H137       33.7364   24.4570    3.9477 H         1 UNK         0.0634 
@<TRIPOS>BOND
     1    1    2 1    
     2    1   72 1    
     3    1   73 1    
     4    1   74 1    
     5    2    3 2    
     6    2    4 am   BACKBONE|DICT|INTERRES
     7    4    5 1    
     8    4   75 1    
     9    5    6 1    
    10    5   35 1    
    11    5   76 1    
    12    6    7 1    
    13    6   77 1    
    14    6   78 1    
    15    7    8 1    
    16    8    9 1    
    17    8   79 1    
    18    8   80 1    
    19    9   10 ar   
    20    9   14 ar   
    21   10   11 ar   
    22   10   81 1    
    23   11   12 ar   
    24   11   71 1    
    25   12   13 ar   
    26   12   82 1    
    27   13   14 ar   
    28   13   15 1    
    29   14   83 1    
    30   15   16 1    
    31   15   84 1    
    32   15   85 1    
    33   16   17 1    
    34   17   18 1    
    35   17   86 1    
    36   17   87 1    
    37   18   19 1    
    38   18   37 1    
    39   18   88 1    
    40   19   20 am   BACKBONE|DICT|INTERRES
    41   19   89 1    
    42   20   21 2    
    43   20   22 1    
    44   22   23 1    
    45   22   24 1    
    46   22   90 1    
    47   23   91 1    
    48   23   92 1    
    49   23   93 1    
    50   24   25 am   BACKBONE|DICT|INTERRES
    51   24   94 1    
    52   25   26 2    
    53   25   27 1    
    54   27   28 1    
    55   27   29 1    
    56   27   95 1    
    57   28   96 1    
    58   28   97 1    
    59   28   98 1    
    60   29   30 am   BACKBONE|DICT|INTERRES
    61   29   99 1    
    62   30   31 2    
    63   30   32 1    
    64   32   33 1    
    65   32   34 1    
    66   32  100 1    
    67   33  101 1    
    68   33  102 1    
    69   33  103 1    
    70   34   35 am   BACKBONE|DICT|INTERRES
    71   34  104 1    
    72   35   36 2    
    73   37   38 2    
    74   37   39 am   BACKBONE|DICT|INTERRES
    75   39   40 1    
    76   39  105 1    
    77   40   41 1    
    78   40   42 1    
    79   40  106 1    
    80   41  107 1    
    81   41  108 1    
    82   41  109 1    
    83   42   43 2    
    84   42   44 am   BACKBONE|DICT|INTERRES
    85   44   45 1    
    86   44  110 1    
    87   45   46 1    
    88   45   47 1    
    89   45  111 1    
    90   46  112 1    
    91   46  113 1    
    92   46  114 1    
    93   47   48 2    
    94   47   49 am   BACKBONE|DICT|INTERRES
    95   49   50 1    
    96   49  115 1    
    97   50   51 1    
    98   50   52 1    
    99   50  116 1    
   100   51  117 1    
   101   51  118 1    
   102   51  119 1    
   103   52   53 2    
   104   52   54 am   BACKBONE|DICT|INTERRES
   105   54   55 1    
   106   54  120 1    
   107   55   56 1    
   108   55   57 1    
   109   55  121 1    
   110   56  122 1    
   111   56  123 1    
   112   56  124 1    
   113   57   58 2    
   114   57   59 am   BACKBONE|DICT|INTERRES
   115   59   60 1    
   116   59  125 1    
   117   60   61 1    
   118   60   62 1    
   119   60  126 1    
   120   61  127 1    
   121   61  128 1    
   122   61  129 1    
   123   62   63 2    
   124   62   64 am   BACKBONE|DICT|INTERRES
   125   64   65 1    
   126   64  130 1    
   127   65   66 1    
   128   65   69 1    
   129   65  131 1    
   130   66   67 am   BACKBONE|DICT|INTERRES
   131   66   68 2    
   132   67  132 1    
   133   67  133 1    
   134   69   70 1    
   135   69  134 1    
   136   69  135 1    
   137   70   71 1    
   138   71  136 1    
   139   71  137 1    
@<TRIPOS>SUBSTRUCTURE
     1 UNK         1 GROUP             0       ****    0 ROOT    
