@<TRIPOS>MOLECULE
3R136
137   139    1
SMALL
USER_CHARGES


@<TRIPOS>ATOM
      1 CA         34.6847   24.2043    0.9132 C.3       0 UNK        -0.1979 
      2 C          33.2528   24.3030    0.4083 C.2       0 UNK         0.4864 
      3 O          33.0011   24.0458   -0.7693 O.2       0 UNK        -0.5359 
      4 N          32.3196   24.6930    1.2873 N.am      1 UNK        -0.4318 
      5 CA         30.8575   24.7376    1.1032 C.3       1 UNK         0.0824 
      6 C6         30.2198   23.3672    0.7386 C.3       12 UNK        -0.0944 
      7 S7         30.7145   22.0105    1.8590 S.3       12 UNK        -0.2672 
      8 C8         29.2057   21.7486    2.8567 C.3       12 UNK         0.0333 
      9 C9         28.8228   22.9168    3.7654 C.ar      12 UNK        -0.0807 
     10 C10        29.7863   23.7616    4.3304 C.ar      12 UNK        -0.0894 
     11 C11        29.4061   24.8520    5.1157 C.ar      12 UNK        -0.0804 
     12 C12        28.0539   25.0561    5.4005 C.ar      12 UNK        -0.0824 
     13 C13        27.0816   24.1989    4.8786 C.ar      12 UNK        -0.0762 
     14 C14        27.4719   23.1384    4.0548 C.ar      12 UNK        -0.0782 
     15 C15        25.6119   24.4244    5.2053 C.3       12 UNK         0.0230 
     16 S16        24.9803   25.9726    4.4847 S.3       12 UNK        -0.2608 
     17 C17        24.9282   25.5695    2.7050 C.3       12 UNK        -0.0989 
     18 CA         26.2257   25.9193    1.9265 C.3       5 UNK         0.0716 
     19 N          26.1525   25.4854    0.5369 N.am      5 UNK        -0.4135 
     20 C          26.2737   24.2302    0.0986 C.2       4 UNK         0.5031 
     21 O          26.3975   23.2606    0.8472 O.2       4 UNK        -0.5229 
     22 CA         26.2747   23.9834   -1.4232 C.3       4 UNK         0.0329 
     23 CB         24.8778   23.5541   -1.9135 C.3       4 UNK        -0.2001 
     24 N          26.8228   25.0745   -2.2438 N.am      4 UNK        -0.4303 
     25 C          26.3324   26.3006   -2.4695 C.2       3 UNK         0.5044 
     26 O          25.2884   26.7218   -1.9702 O.2       3 UNK        -0.5152 
     27 CA         27.1820   27.2153   -3.3756 C.3       3 UNK         0.0319 
     28 CB         26.4809   28.5491   -3.6943 C.3       3 UNK        -0.2001 
     29 N          28.4892   27.5017   -2.7795 N.am      3 UNK        -0.4354 
     30 C          29.5263   26.6553   -2.7288 C.2       2 UNK         0.4964 
     31 O          29.5061   25.5299   -3.2326 O.2       2 UNK        -0.5047 
     32 CA         30.7910   27.1132   -1.9763 C.3       2 UNK         0.0288 
     33 CB         30.7313   28.5689   -1.4533 C.3       2 UNK        -0.2113 
     34 N          31.1194   26.1732   -0.8979 N.am      2 UNK        -0.4145 
     35 C          30.3524   25.8435    0.1520 C.2       1 UNK         0.5006 
     36 O          29.2688   26.3734    0.3935 O.2       1 UNK        -0.5103 
     37 C          26.5492   27.4231    1.9223 C.2       5 UNK         0.5055 
     38 O          26.1059   28.1417    1.0215 O.2       5 UNK        -0.5220 
     39 N          27.2986   27.8720    2.9329 N.am      6 UNK        -0.4450 
     40 CA         27.6976   29.2561    3.1581 C.3       6 UNK         0.0367 
     41 CB         28.9012   29.6086    2.2599 C.3       6 UNK        -0.1929 
     42 C          28.0260   29.4331    4.6469 C.2       6 UNK         0.5070 
     43 O          28.0593   28.4518    5.3925 O.2       6 UNK        -0.5237 
     44 N          28.2699   30.6830    5.0512 N.am      7 UNK        -0.4739 
     45 CA         28.7088   31.0593    6.4002 C.3       7 UNK         0.0276 
     46 CB         27.5341   31.7177    7.1477 C.3       7 UNK        -0.1927 
     47 C          29.9486   31.9726    6.3513 C.2       7 UNK         0.5013 
     48 O          30.2492   32.6470    7.3373 O.2       7 UNK        -0.5193 
     49 N          30.6361   31.9939    5.2042 N.am      8 UNK        -0.4253 
     50 CA         31.8017   32.8114    4.8880 C.3       8 UNK         0.0242 
     51 CB         31.3747   34.2789    4.6663 C.3       8 UNK        -0.2000 
     52 C          32.4679   32.2126    3.6403 C.2       8 UNK         0.4948 
     53 O          32.0373   31.1542    3.1682 O.2       8 UNK        -0.5275 
     54 N          33.4987   32.8987    3.1246 N.am      9 UNK        -0.4246 
     55 CA         34.2755   32.5512    1.9287 C.3       9 UNK         0.0261 
     56 CB         33.4145   32.7069    0.6528 C.3       9 UNK        -0.1959 
     57 C          34.9309   31.1683    2.0830 C.2       9 UNK         0.5033 
     58 O          35.8481   31.0321    2.8944 O.2       9 UNK        -0.5390 
     59 N          34.4242   30.1624    1.3577 N.am      10 UNK        -0.4215 
     60 CA         34.8510   28.7630    1.4431 C.3       10 UNK         0.0240 
     61 CB         34.1415   27.9543    0.3476 C.3       10 UNK        -0.1982 
     62 C          34.6120   28.1225    2.8249 C.2       10 UNK         0.4970 
     63 O          35.3343   27.1908    3.1800 O.2       10 UNK        -0.4916 
     64 N          33.6288   28.6356    3.5760 N.am      11 UNK        -0.4279 
     65 CA         33.3668   28.2752    4.9773 C.3       11 UNK         0.1003 
     66 C          34.1372   29.1653    5.9980 C.2       11 UNK         0.5709 
     67 N          34.9683   30.1154    5.5828 N.am      11 UNK        -0.7358 
     68 O          33.9925   28.9791    7.2037 O.2       11 UNK        -0.4999 
     69 C69        31.8459   28.2470    5.2771 C.3       12 UNK        -0.0954 
     70 S70        30.9747   26.9665    4.3155 S.3       12 UNK        -0.2268 
     71 C71        30.4531   25.8242    5.6334 C.3       12 UNK         0.0203 
     72 H72        34.9617   23.1585    1.0430 H         1 UNK         0.0888 
     73 H73        35.3732   24.6502    0.1960 H         1 UNK         0.0888 
     74 H74        34.8152   24.7131    1.8684 H         1 UNK         0.0888 
     75 H75        32.6200   24.9297    2.2225 H         1 UNK         0.3017 
     76 H76        30.4659   25.0229    2.0780 H         1 UNK         0.0873 
     77 H77        30.4935   23.0767   -0.2772 H         1 UNK         0.0745 
     78 H78        29.1318   23.4454    0.7434 H         1 UNK         0.0745 
     79 H79        29.3531   20.8652    3.4788 H         1 UNK         0.0705 
     80 H80        28.3839   21.5146    2.1775 H         1 UNK         0.0705 
     81 H81        30.8361   23.6003    4.1300 H         1 UNK         0.1334 
     82 H82        27.7534   25.8928    6.0171 H         1 UNK         0.1417 
     83 H83        26.7204   22.4865    3.6294 H         1 UNK         0.1562 
     84 H84        24.9985   23.5874    4.8681 H         1 UNK         0.0748 
     85 H85        25.4948   24.4701    6.2889 H         1 UNK         0.0748 
     86 H86        24.0768   26.0918    2.2646 H         1 UNK         0.0940 
     87 H87        24.7038   24.5069    2.6026 H         1 UNK         0.0940 
     88 H88        27.0751   25.4045    2.3786 H         1 UNK         0.0703 
     89 H89        26.0277   26.2367   -0.1361 H         1 UNK         0.3081 
     90 H90        26.9480   23.1408   -1.5885 H         1 UNK         0.0719 
     91 H91        24.5336   22.6697   -1.3756 H         1 UNK         0.0809 
     92 H92        24.1323   24.3345   -1.7589 H         1 UNK         0.0809 
     93 H93        24.8885   23.3039   -2.9743 H         1 UNK         0.0809 
     94 H94        27.7336   24.8867   -2.6544 H         1 UNK         0.2990 
     95 H95        27.3340   26.6871   -4.3194 H         1 UNK         0.0690 
     96 H96        27.0713   29.1534   -4.3834 H         1 UNK         0.0788 
     97 H97        26.3065   29.1396   -2.7937 H         1 UNK         0.0788 
     98 H98        25.5117   28.3779   -4.1649 H         1 UNK         0.0788 
     99 H99        28.5760   28.3821   -2.2927 H         1 UNK         0.2993 
    100 H100       31.6077   27.0539   -2.6973 H         1 UNK         0.0949 
    101 H101       30.5451   29.2734   -2.2650 H         1 UNK         0.0767 
    102 H102       29.9525   28.7095   -0.7038 H         1 UNK         0.0767 
    103 H103       31.6764   28.8627   -1.0001 H         1 UNK         0.0767 
    104 H104       31.9430   25.5942   -1.0440 H         1 UNK         0.3013 
    105 H105       27.5691   27.2453    3.6831 H         1 UNK         0.3121 
    106 H106       26.8571   29.9112    2.9198 H         1 UNK         0.0774 
    107 H107       29.7637   28.9768    2.4734 H         1 UNK         0.0815 
    108 H108       28.6550   29.4833    1.2059 H         1 UNK         0.0815 
    109 H109       29.2145   30.6442    2.3927 H         1 UNK         0.0815 
    110 H110       28.1909   31.4387    4.3839 H         1 UNK         0.2987 
    111 H111       29.0155   30.1716    6.9582 H         1 UNK         0.0949 
    112 H112       27.2164   32.6417    6.6634 H         1 UNK         0.0806 
    113 H113       27.8073   31.9628    8.1749 H         1 UNK         0.0806 
    114 H114       26.6734   31.0504    7.1956 H         1 UNK         0.0806 
    115 H115       30.3960   31.3420    4.4671 H         1 UNK         0.3010 
    116 H116       32.5127   32.7497    5.7145 H         1 UNK         0.0829 
    117 H117       30.7033   34.3758    3.8120 H         1 UNK         0.0813 
    118 H118       30.8609   34.6830    5.5385 H         1 UNK         0.0813 
    119 H119       32.2336   34.9250    4.4837 H         1 UNK         0.0813 
    120 H120       33.8039   33.7316    3.6085 H         1 UNK         0.3038 
    121 H121       35.0933   33.2707    1.8638 H         1 UNK         0.0769 
    122 H122       33.9910   32.4724   -0.2433 H         1 UNK         0.0811 
    123 H123       33.0669   33.7344    0.5448 H         1 UNK         0.0811 
    124 H124       32.5318   32.0665    0.6594 H         1 UNK         0.0811 
    125 H125       33.6416   30.3655    0.7531 H         1 UNK         0.3204 
    126 H126       35.9253   28.7380    1.2489 H         1 UNK         0.0748 
    127 H127       34.5847   26.9644    0.2583 H         1 UNK         0.0771 
    128 H128       33.0820   27.8212    0.5692 H         1 UNK         0.0771 
    129 H129       34.2303   28.4302   -0.6292 H         1 UNK         0.0771 
    130 H130       33.0864   29.4161    3.2198 H         1 UNK         0.2980 
    131 H131       33.7408   27.2649    5.1524 H         1 UNK         0.0545 
    132 H132       35.4599   30.6616    6.2716 H         1 UNK         0.3459 
    133 H133       35.1530   30.2721    4.5983 H         1 UNK         0.3459 
    134 H134       31.6606   28.0771    6.3388 H         1 UNK         0.0616 
    135 H135       31.3929   29.2113    5.0461 H         1 UNK         0.0616 
    136 H136       30.0482   26.3943    6.4712 H         1 UNK         0.0634 
    137 H137       31.3209   25.2815    6.0108 H         1 UNK         0.0634 
@<TRIPOS>BOND
     1    1    2 1    
     2    1   72 1    
     3    1   73 1    
     4    1   74 1    
     5    2    3 2    
     6    2    4 am   BACKBONE|DICT|INTERRES
     7    4    5 1    
     8    4   75 1    
     9    5    6 1    
    10    5   35 1    
    11    5   76 1    
    12    6    7 1    
    13    6   77 1    
    14    6   78 1    
    15    7    8 1    
    16    8    9 1    
    17    8   79 1    
    18    8   80 1    
    19    9   10 ar   
    20    9   14 ar   
    21   10   11 ar   
    22   10   81 1    
    23   11   12 ar   
    24   11   71 1    
    25   12   13 ar   
    26   12   82 1    
    27   13   14 ar   
    28   13   15 1    
    29   14   83 1    
    30   15   16 1    
    31   15   84 1    
    32   15   85 1    
    33   16   17 1    
    34   17   18 1    
    35   17   86 1    
    36   17   87 1    
    37   18   19 1    
    38   18   37 1    
    39   18   88 1    
    40   19   20 am   BACKBONE|DICT|INTERRES
    41   19   89 1    
    42   20   21 2    
    43   20   22 1    
    44   22   23 1    
    45   22   24 1    
    46   22   90 1    
    47   23   91 1    
    48   23   92 1    
    49   23   93 1    
    50   24   25 am   BACKBONE|DICT|INTERRES
    51   24   94 1    
    52   25   26 2    
    53   25   27 1    
    54   27   28 1    
    55   27   29 1    
    56   27   95 1    
    57   28   96 1    
    58   28   97 1    
    59   28   98 1    
    60   29   30 am   BACKBONE|DICT|INTERRES
    61   29   99 1    
    62   30   31 2    
    63   30   32 1    
    64   32   33 1    
    65   32   34 1    
    66   32  100 1    
    67   33  101 1    
    68   33  102 1    
    69   33  103 1    
    70   34   35 am   BACKBONE|DICT|INTERRES
    71   34  104 1    
    72   35   36 2    
    73   37   38 2    
    74   37   39 am   BACKBONE|DICT|INTERRES
    75   39   40 1    
    76   39  105 1    
    77   40   41 1    
    78   40   42 1    
    79   40  106 1    
    80   41  107 1    
    81   41  108 1    
    82   41  109 1    
    83   42   43 2    
    84   42   44 am   BACKBONE|DICT|INTERRES
    85   44   45 1    
    86   44  110 1    
    87   45   46 1    
    88   45   47 1    
    89   45  111 1    
    90   46  112 1    
    91   46  113 1    
    92   46  114 1    
    93   47   48 2    
    94   47   49 am   BACKBONE|DICT|INTERRES
    95   49   50 1    
    96   49  115 1    
    97   50   51 1    
    98   50   52 1    
    99   50  116 1    
   100   51  117 1    
   101   51  118 1    
   102   51  119 1    
   103   52   53 2    
   104   52   54 am   BACKBONE|DICT|INTERRES
   105   54   55 1    
   106   54  120 1    
   107   55   56 1    
   108   55   57 1    
   109   55  121 1    
   110   56  122 1    
   111   56  123 1    
   112   56  124 1    
   113   57   58 2    
   114   57   59 am   BACKBONE|DICT|INTERRES
   115   59   60 1    
   116   59  125 1    
   117   60   61 1    
   118   60   62 1    
   119   60  126 1    
   120   61  127 1    
   121   61  128 1    
   122   61  129 1    
   123   62   63 2    
   124   62   64 am   BACKBONE|DICT|INTERRES
   125   64   65 1    
   126   64  130 1    
   127   65   66 1    
   128   65   69 1    
   129   65  131 1    
   130   66   67 am   BACKBONE|DICT|INTERRES
   131   66   68 2    
   132   67  132 1    
   133   67  133 1    
   134   69   70 1    
   135   69  134 1    
   136   69  135 1    
   137   70   71 1    
   138   71  136 1    
   139   71  137 1    
@<TRIPOS>SUBSTRUCTURE
     1 UNK         1 GROUP             0       ****    0 ROOT    
