@<TRIPOS>MOLECULE
3R136
137   139    1
SMALL
USER_CHARGES


@<TRIPOS>ATOM
      1 CA         35.2552   22.8485    0.9361 C.3       0 UNK        -0.1979 
      2 C          33.8603   23.4238    1.1276 C.2       0 UNK         0.4864 
      3 O          33.7141   24.6391    1.2660 O.2       0 UNK        -0.5359 
      4 N          32.8363   22.5627    1.1522 N.am      1 UNK        -0.4318 
      5 CA         31.4276   22.9446    1.2758 C.3       1 UNK         0.0824 
      6 C6         30.5314   21.7319    1.6340 C.3       12 UNK        -0.0944 
      7 S7         30.9496   21.0329    3.2671 S.3       12 UNK        -0.2672 
      8 C8         29.3554   21.1446    4.1548 C.3       12 UNK         0.0333 
      9 C9         28.7807   22.5564    4.2745 C.ar      12 UNK        -0.0807 
     10 C10        29.6062   23.6765    4.4252 C.ar      12 UNK        -0.0894 
     11 C11        29.0579   24.9575    4.5195 C.ar      12 UNK        -0.0804 
     12 C12        27.6695   25.1167    4.5190 C.ar      12 UNK        -0.0824 
     13 C13        26.8291   24.0078    4.3806 C.ar      12 UNK        -0.0762 
     14 C14        27.3927   22.7337    4.2518 C.ar      12 UNK        -0.0782 
     15 C15        25.3141   24.1742    4.3944 C.3       12 UNK         0.0230 
     16 S16        24.6592   24.7469    2.7911 S.3       12 UNK        -0.2608 
     17 C17        24.8254   26.5590    2.9387 C.3       12 UNK        -0.0989 
     18 CA         25.9501   27.1203    2.0284 C.3       5 UNK         0.0716 
     19 N          25.6744   26.9882    0.5914 N.am      5 UNK        -0.4135 
     20 C          24.7281   27.6332   -0.1127 C.2       4 UNK         0.5031 
     21 O          23.8717   28.3588    0.3943 O.2       4 UNK        -0.5229 
     22 CA         24.7419   27.4935   -1.6487 C.3       4 UNK         0.0329 
     23 CB         25.1130   28.8366   -2.3017 C.3       4 UNK        -0.2001 
     24 N          25.6651   26.4700   -2.1388 N.am      4 UNK        -0.4303 
     25 C          25.4099   25.1558   -2.1679 C.2       3 UNK         0.5044 
     26 O          24.3289   24.6587   -1.8516 O.2       3 UNK        -0.5152 
     27 CA         26.5672   24.2373   -2.6060 C.3       3 UNK         0.0319 
     28 CB         26.4430   23.8939   -4.0993 C.3       3 UNK        -0.2001 
     29 N          27.9106   24.7752   -2.3430 N.am      3 UNK        -0.4354 
     30 C          28.3857   25.0875   -1.1295 C.2       2 UNK         0.4964 
     31 O          27.7126   25.0465   -0.0981 O.2       2 UNK        -0.5047 
     32 CA         29.8418   25.5637   -1.0462 C.3       2 UNK         0.0288 
     33 CB         29.9043   27.0802   -0.7964 C.3       2 UNK        -0.2113 
     34 N          30.5086   24.8637    0.0494 N.am      2 UNK        -0.4145 
     35 C          30.9478   23.6016   -0.0310 C.2       1 UNK         0.5006 
     36 O          30.9705   22.9488   -1.0782 O.2       1 UNK        -0.5103 
     37 C          26.3338   28.5756    2.3710 C.2       5 UNK         0.5055 
     38 O          25.6147   29.2608    3.1025 O.2       5 UNK        -0.5220 
     39 N          27.4507   29.0254    1.7846 N.am      6 UNK        -0.4450 
     40 CA         28.0263   30.3596    1.9619 C.3       6 UNK         0.0367 
     41 CB         29.1044   30.5707    0.8815 C.3       6 UNK        -0.1929 
     42 C          28.5971   30.5882    3.3764 C.2       6 UNK         0.5070 
     43 O          28.6905   29.6558    4.1781 O.2       6 UNK        -0.5237 
     44 N          28.9823   31.8407    3.6526 N.am      7 UNK        -0.4739 
     45 CA         29.6684   32.2470    4.8817 C.3       7 UNK         0.0276 
     46 CB         29.7480   33.7819    4.9236 C.3       7 UNK        -0.1927 
     47 C          31.0785   31.6393    4.9768 C.2       7 UNK         0.5013 
     48 O          31.7133   31.4062    3.9457 O.2       7 UNK        -0.5193 
     49 N          31.5636   31.4531    6.2130 N.am      8 UNK        -0.4253 
     50 CA         32.8390   30.8068    6.5613 C.3       8 UNK         0.0242 
     51 CB         32.9885   30.7882    8.0915 C.3       8 UNK        -0.2000 
     52 C          34.1020   31.4043    5.9082 C.2       8 UNK         0.4948 
     53 O          35.1174   30.7140    5.8211 O.2       8 UNK        -0.5275 
     54 N          34.0190   32.6534    5.4309 N.am      9 UNK        -0.4246 
     55 CA         35.0426   33.3091    4.6142 C.3       9 UNK         0.0261 
     56 CB         34.6791   34.7947    4.4563 C.3       9 UNK        -0.1959 
     57 C          35.2488   32.6575    3.2303 C.2       9 UNK         0.5033 
     58 O          36.3184   32.8401    2.6465 O.2       9 UNK        -0.5390 
     59 N          34.2462   31.9233    2.7266 N.am      10 UNK        -0.4215 
     60 CA         34.2708   31.2411    1.4324 C.3       10 UNK         0.0240 
     61 CB         33.6888   32.1740    0.3511 C.3       10 UNK        -0.1982 
     62 C          33.5439   29.8866    1.5082 C.2       10 UNK         0.4970 
     63 O          32.8887   29.4953    0.5407 O.2       10 UNK        -0.4916 
     64 N          33.6607   29.1941    2.6479 N.am      11 UNK        -0.4279 
     65 CA         32.9978   27.9146    2.9168 C.3       11 UNK         0.1003 
     66 C          33.7726   27.1435    4.0108 C.2       11 UNK         0.5709 
     67 N          34.1439   25.8974    3.7598 N.am      11 UNK        -0.7358 
     68 O          34.0216   27.6626    5.0957 O.2       11 UNK        -0.4999 
     69 C69        31.5055   28.1197    3.2904 C.3       12 UNK        -0.0954 
     70 S70        30.4781   26.6655    2.9194 S.3       12 UNK        -0.2268 
     71 C71        29.9710   26.1685    4.5912 C.3       12 UNK         0.0203 
     72 H72        35.2395   21.7626    0.8443 H         1 UNK         0.0888 
     73 H73        35.8871   23.1084    1.7849 H         1 UNK         0.0888 
     74 H74        35.7088   23.2593    0.0346 H         1 UNK         0.0888 
     75 H75        33.0097   21.5754    1.0305 H         1 UNK         0.3017 
     76 H76        31.3468   23.6788    2.0800 H         1 UNK         0.0873 
     77 H77        30.6310   20.9414    0.8875 H         1 UNK         0.0745 
     78 H78        29.4785   22.0212    1.6251 H         1 UNK         0.0745 
     79 H79        28.6429   20.4891    3.6512 H         1 UNK         0.0705 
     80 H80        29.4894   20.7405    5.1588 H         1 UNK         0.0705 
     81 H81        30.6807   23.5598    4.4478 H         1 UNK         0.1334 
     82 H82        27.2463   26.1067    4.6135 H         1 UNK         0.1417 
     83 H83        26.7454   21.8737    4.1439 H         1 UNK         0.1562 
     84 H84        25.0174   24.8547    5.1937 H         1 UNK         0.0748 
     85 H85        24.8395   23.2209    4.6319 H         1 UNK         0.0748 
     86 H86        25.0118   26.8152    3.9827 H         1 UNK         0.0940 
     87 H87        23.8655   27.0173    2.6960 H         1 UNK         0.0940 
     88 H88        26.8475   26.5270    2.2106 H         1 UNK         0.0703 
     89 H89        26.3047   26.3593    0.1029 H         1 UNK         0.3081 
     90 H90        23.7283   27.2318   -1.9604 H         1 UNK         0.0719 
     91 H91        24.4183   29.6228   -2.0026 H         1 UNK         0.0809 
     92 H92        26.1143   29.1624   -2.0165 H         1 UNK         0.0809 
     93 H93        25.0759   28.7736   -3.3895 H         1 UNK         0.0809 
     94 H94        26.5783   26.7828   -2.4342 H         1 UNK         0.2990 
     95 H95        26.4723   23.3112   -2.0350 H         1 UNK         0.0690 
     96 H96        27.1898   23.1596   -4.4022 H         1 UNK         0.0788 
     97 H97        26.5634   24.7769   -4.7283 H         1 UNK         0.0788 
     98 H98        25.4641   23.4666   -4.3219 H         1 UNK         0.0788 
     99 H99        28.5266   24.8500   -3.1404 H         1 UNK         0.2993 
    100 H100       30.3581   25.3408   -1.9827 H         1 UNK         0.0949 
    101 H101       29.3856   27.3601    0.1200 H         1 UNK         0.0767 
    102 H102       30.9352   27.4260   -0.7107 H         1 UNK         0.0767 
    103 H103       29.4438   27.6328   -1.6163 H         1 UNK         0.0767 
    104 H104       30.5026   25.3279    0.9484 H         1 UNK         0.3013 
    105 H105       27.9903   28.3790    1.2306 H         1 UNK         0.3121 
    106 H106       27.2304   31.0911    1.8065 H         1 UNK         0.0774 
    107 H107       29.9125   29.8438    0.9633 H         1 UNK         0.0815 
    108 H108       28.6822   30.4847   -0.1199 H         1 UNK         0.0815 
    109 H109       29.5558   31.5609    0.9517 H         1 UNK         0.0815 
    110 H110       28.8992   32.5433    2.9325 H         1 UNK         0.2987 
    111 H111       29.0776   31.8965    5.7310 H         1 UNK         0.0949 
    112 H112       28.7560   34.2324    4.8824 H         1 UNK         0.0806 
    113 H113       30.2182   34.1271    5.8454 H         1 UNK         0.0806 
    114 H114       30.3319   34.1789    4.0918 H         1 UNK         0.0806 
    115 H115       30.9775   31.7108    6.9944 H         1 UNK         0.3010 
    116 H116       32.7703   29.7738    6.2154 H         1 UNK         0.0829 
    117 H117       33.9094   30.2838    8.3883 H         1 UNK         0.0813 
    118 H118       32.1650   30.2543    8.5661 H         1 UNK         0.0813 
    119 H119       33.0213   31.7967    8.5058 H         1 UNK         0.0813 
    120 H120       33.1470   33.1474    5.5503 H         1 UNK         0.3038 
    121 H121       35.9918   33.2424    5.1502 H         1 UNK         0.0769 
    122 H122       34.6087   35.2924    5.4237 H         1 UNK         0.0811 
    123 H123       33.7274   34.9249    3.9394 H         1 UNK         0.0811 
    124 H124       35.4385   35.3227    3.8775 H         1 UNK         0.0811 
    125 H125       33.3846   31.8092    3.2622 H         1 UNK         0.3204 
    126 H126       35.3030   31.0081    1.1631 H         1 UNK         0.0748 
    127 H127       33.7413   31.7149   -0.6369 H         1 UNK         0.0771 
    128 H128       32.6424   32.4093    0.5498 H         1 UNK         0.0771 
    129 H129       34.2400   33.1130    0.2984 H         1 UNK         0.0771 
    130 H130       34.2318   29.5506    3.4026 H         1 UNK         0.2980 
    131 H131       33.0492   27.3285    1.9962 H         1 UNK         0.0545 
    132 H132       33.9490   25.4692    2.8561 H         1 UNK         0.3459 
    133 H133       34.6420   25.3810    4.4661 H         1 UNK         0.3459 
    134 H134       31.0840   28.9389    2.7103 H         1 UNK         0.0616 
    135 H135       31.3902   28.4220    4.3329 H         1 UNK         0.0616 
    136 H136       29.4634   27.0020    5.0796 H         1 UNK         0.0634 
    137 H137       30.8551   25.9418    5.1892 H         1 UNK         0.0634 
@<TRIPOS>BOND
     1    1    2 1    
     2    1   72 1    
     3    1   73 1    
     4    1   74 1    
     5    2    3 2    
     6    2    4 am   BACKBONE|DICT|INTERRES
     7    4    5 1    
     8    4   75 1    
     9    5    6 1    
    10    5   35 1    
    11    5   76 1    
    12    6    7 1    
    13    6   77 1    
    14    6   78 1    
    15    7    8 1    
    16    8    9 1    
    17    8   79 1    
    18    8   80 1    
    19    9   10 ar   
    20    9   14 ar   
    21   10   11 ar   
    22   10   81 1    
    23   11   12 ar   
    24   11   71 1    
    25   12   13 ar   
    26   12   82 1    
    27   13   14 ar   
    28   13   15 1    
    29   14   83 1    
    30   15   16 1    
    31   15   84 1    
    32   15   85 1    
    33   16   17 1    
    34   17   18 1    
    35   17   86 1    
    36   17   87 1    
    37   18   19 1    
    38   18   37 1    
    39   18   88 1    
    40   19   20 am   BACKBONE|DICT|INTERRES
    41   19   89 1    
    42   20   21 2    
    43   20   22 1    
    44   22   23 1    
    45   22   24 1    
    46   22   90 1    
    47   23   91 1    
    48   23   92 1    
    49   23   93 1    
    50   24   25 am   BACKBONE|DICT|INTERRES
    51   24   94 1    
    52   25   26 2    
    53   25   27 1    
    54   27   28 1    
    55   27   29 1    
    56   27   95 1    
    57   28   96 1    
    58   28   97 1    
    59   28   98 1    
    60   29   30 am   BACKBONE|DICT|INTERRES
    61   29   99 1    
    62   30   31 2    
    63   30   32 1    
    64   32   33 1    
    65   32   34 1    
    66   32  100 1    
    67   33  101 1    
    68   33  102 1    
    69   33  103 1    
    70   34   35 am   BACKBONE|DICT|INTERRES
    71   34  104 1    
    72   35   36 2    
    73   37   38 2    
    74   37   39 am   BACKBONE|DICT|INTERRES
    75   39   40 1    
    76   39  105 1    
    77   40   41 1    
    78   40   42 1    
    79   40  106 1    
    80   41  107 1    
    81   41  108 1    
    82   41  109 1    
    83   42   43 2    
    84   42   44 am   BACKBONE|DICT|INTERRES
    85   44   45 1    
    86   44  110 1    
    87   45   46 1    
    88   45   47 1    
    89   45  111 1    
    90   46  112 1    
    91   46  113 1    
    92   46  114 1    
    93   47   48 2    
    94   47   49 am   BACKBONE|DICT|INTERRES
    95   49   50 1    
    96   49  115 1    
    97   50   51 1    
    98   50   52 1    
    99   50  116 1    
   100   51  117 1    
   101   51  118 1    
   102   51  119 1    
   103   52   53 2    
   104   52   54 am   BACKBONE|DICT|INTERRES
   105   54   55 1    
   106   54  120 1    
   107   55   56 1    
   108   55   57 1    
   109   55  121 1    
   110   56  122 1    
   111   56  123 1    
   112   56  124 1    
   113   57   58 2    
   114   57   59 am   BACKBONE|DICT|INTERRES
   115   59   60 1    
   116   59  125 1    
   117   60   61 1    
   118   60   62 1    
   119   60  126 1    
   120   61  127 1    
   121   61  128 1    
   122   61  129 1    
   123   62   63 2    
   124   62   64 am   BACKBONE|DICT|INTERRES
   125   64   65 1    
   126   64  130 1    
   127   65   66 1    
   128   65   69 1    
   129   65  131 1    
   130   66   67 am   BACKBONE|DICT|INTERRES
   131   66   68 2    
   132   67  132 1    
   133   67  133 1    
   134   69   70 1    
   135   69  134 1    
   136   69  135 1    
   137   70   71 1    
   138   71  136 1    
   139   71  137 1    
@<TRIPOS>SUBSTRUCTURE
     1 UNK         1 GROUP             0       ****    0 ROOT    
