@<TRIPOS>MOLECULE
3R136
137   139    1
SMALL
USER_CHARGES


@<TRIPOS>ATOM
      1 CA         24.5024   26.2820    4.1843 C.3       0 UNK        -0.1979 
      2 C          25.5188   25.1628    4.3545 C.2       0 UNK         0.4864 
      3 O          25.4417   24.4121    5.3281 O.2       0 UNK        -0.5359 
      4 N          26.4586   25.0427    3.4092 N.am      1 UNK        -0.4318 
      5 CA         27.4125   23.9363    3.3200 C.3       1 UNK         0.0824 
      6 C6         28.7611   24.3580    2.6847 C.3       12 UNK        -0.0944 
      7 S7         29.7436   25.4754    3.7372 S.3       12 UNK        -0.2672 
      8 C8         31.4429   24.8783    3.4204 C.3       12 UNK         0.0333 
      9 C9         32.0337   25.4655    2.1421 C.ar      12 UNK        -0.0807 
     10 C10        33.0710   26.4014    2.2079 C.ar      12 UNK        -0.0894 
     11 C11        33.5936   26.9701    1.0416 C.ar      12 UNK        -0.0804 
     12 C12        33.0578   26.6128   -0.2004 C.ar      12 UNK        -0.0824 
     13 C13        32.0261   25.6722   -0.2806 C.ar      12 UNK        -0.0762 
     14 C14        31.5465   25.0780    0.8905 C.ar      12 UNK        -0.0782 
     15 C15        31.4096   25.3045   -1.6256 C.3       12 UNK         0.0230 
     16 S16        30.0985   26.4718   -2.1314 S.3       12 UNK        -0.2608 
     17 C17        28.9255   26.3281   -0.7435 C.3       12 UNK        -0.0989 
     18 CA         27.6928   27.2491   -0.8898 C.3       5 UNK         0.0716 
     19 N          26.7712   26.8093   -1.9377 N.am      5 UNK        -0.4135 
     20 C          25.9322   27.6365   -2.5788 C.2       4 UNK         0.5031 
     21 O          25.8537   28.8417   -2.3325 O.2       4 UNK        -0.5229 
     22 CA         25.0510   27.0657   -3.7062 C.3       4 UNK         0.0329 
     23 CB         25.5788   27.5228   -5.0769 C.3       4 UNK        -0.2001 
     24 N          24.9575   25.6062   -3.7038 N.am      4 UNK        -0.4303 
     25 C          24.1322   24.8937   -2.9273 C.2       3 UNK         0.5044 
     26 O          23.3338   25.3948   -2.1337 O.2       3 UNK        -0.5152 
     27 CA         24.2097   23.3564   -3.0419 C.3       3 UNK         0.0319 
     28 CB         25.1132   22.8474   -4.1899 C.3       3 UNK        -0.2001 
     29 N          24.6081   22.7338   -1.7743 N.am      3 UNK        -0.4354 
     30 C          25.7001   23.0243   -1.0536 C.2       2 UNK         0.4964 
     31 O          26.5413   23.8695   -1.3735 O.2       2 UNK        -0.5047 
     32 CA         25.9106   22.2085    0.2242 C.3       2 UNK         0.0288 
     33 CB         26.8267   21.0025   -0.0702 C.3       2 UNK        -0.2113 
     34 N          26.5062   23.0958    1.2171 N.am      2 UNK        -0.4145 
     35 C          26.7576   22.8115    2.5013 C.2       1 UNK         0.5006 
     36 O          26.4856   21.7376    3.0408 O.2       1 UNK        -0.5103 
     37 C          26.9517   27.3589    0.4535 C.2       5 UNK         0.5055 
     38 O          26.3931   26.3680    0.9318 O.2       5 UNK        -0.5220 
     39 N          27.0296   28.5434    1.0648 N.am      6 UNK        -0.4450 
     40 CA         26.5641   28.8466    2.4149 C.3       6 UNK         0.0367 
     41 CB         25.1614   29.4807    2.3571 C.3       6 UNK        -0.1929 
     42 C          27.6203   29.7470    3.0660 C.2       6 UNK         0.5070 
     43 O          27.3597   30.9169    3.3509 O.2       6 UNK        -0.5237 
     44 N          28.8311   29.1948    3.1992 N.am      7 UNK        -0.4739 
     45 CA         30.0243   29.8917    3.6735 C.3       7 UNK         0.0276 
     46 CB         31.2530   29.0530    3.2929 C.3       7 UNK        -0.1927 
     47 C          30.0177   30.1436    5.1889 C.2       7 UNK         0.5013 
     48 O          29.3000   29.4744    5.9366 O.2       7 UNK        -0.5193 
     49 N          30.8869   31.0671    5.6057 N.am      8 UNK        -0.4253 
     50 CA         31.2852   31.3085    6.9867 C.3       8 UNK         0.0242 
     51 CB         30.6967   32.6461    7.4648 C.3       8 UNK        -0.2000 
     52 C          32.8177   31.3442    7.0120 C.2       8 UNK         0.4948 
     53 O          33.4321   31.6736    5.9917 O.2       8 UNK        -0.5275 
     54 N          33.4050   30.9876    8.1642 N.am      9 UNK        -0.4246 
     55 CA         34.8487   30.9841    8.4584 C.3       9 UNK         0.0261 
     56 CB         35.3546   32.4341    8.6165 C.3       9 UNK        -0.1959 
     57 C          35.7022   30.1765    7.4545 C.2       9 UNK         0.5033 
     58 O          36.8468   30.5488    7.1876 O.2       9 UNK        -0.5390 
     59 N          35.1134   29.1148    6.8795 N.am      10 UNK        -0.4215 
     60 CA         35.6580   28.2692    5.8065 C.3       10 UNK         0.0240 
     61 CB         36.7791   27.3618    6.3564 C.3       10 UNK        -0.1982 
     62 C          36.0930   29.0629    4.5532 C.2       10 UNK         0.4970 
     63 O          37.0718   28.6876    3.9057 O.2       10 UNK        -0.4916 
     64 N          35.3687   30.1507    4.2508 N.am      11 UNK        -0.4279 
     65 CA         35.6664   31.1347    3.1950 C.3       11 UNK         0.1003 
     66 C          36.9130   32.0282    3.4834 C.2       11 UNK         0.5709 
     67 N          37.4822   32.0282    4.6841 N.am      11 UNK        -0.7358 
     68 O          37.3592   32.7686    2.6096 O.2       11 UNK        -0.4999 
     69 C69        35.6805   30.5415    1.7522 C.3       12 UNK        -0.0954 
     70 S70        34.1401   29.6687    1.3118 S.3       12 UNK        -0.2268 
     71 C71        34.7423   27.9629    1.1304 C.3       12 UNK         0.0203 
     72 H72        24.7835   27.1438    4.7890 H         1 UNK         0.0888 
     73 H73        24.4249   26.5956    3.1435 H         1 UNK         0.0888 
     74 H74        23.5154   25.9485    4.5039 H         1 UNK         0.0888 
     75 H75        26.4269   25.6526    2.5938 H         1 UNK         0.3017 
     76 H76        27.6184   23.5434    4.3183 H         1 UNK         0.0873 
     77 H77        28.6009   24.8539    1.7285 H         1 UNK         0.0745 
     78 H78        29.3573   23.4680    2.4753 H         1 UNK         0.0745 
     79 H79        31.4630   23.7887    3.3752 H         1 UNK         0.0705 
     80 H80        32.0604   25.1514    4.2774 H         1 UNK         0.0705 
     81 H81        33.4697   26.6971    3.1686 H         1 UNK         0.1334 
     82 H82        33.4399   27.0697   -1.1032 H         1 UNK         0.1417 
     83 H83        30.7617   24.3399    0.8228 H         1 UNK         0.1562 
     84 H84        30.9964   24.2950   -1.5927 H         1 UNK         0.0748 
     85 H85        32.1844   25.2895   -2.3936 H         1 UNK         0.0748 
     86 H86        29.4681   26.5986    0.1636 H         1 UNK         0.0940 
     87 H87        28.6286   25.2843   -0.6332 H         1 UNK         0.0940 
     88 H88        28.0644   28.2418   -1.1555 H         1 UNK         0.0703 
     89 H89        26.7248   25.8099   -2.1031 H         1 UNK         0.3081 
     90 H90        24.0494   27.4814   -3.5755 H         1 UNK         0.0719 
     91 H91        26.5832   27.1437   -5.2704 H         1 UNK         0.0809 
     92 H92        24.9297   27.1859   -5.8854 H         1 UNK         0.0809 
     93 H93        25.6255   28.6113   -5.1350 H         1 UNK         0.0809 
     94 H94        25.5917   25.1075   -4.3113 H         1 UNK         0.2990 
     95 H95        23.1933   23.0182   -3.2492 H         1 UNK         0.0690 
     96 H96        25.0660   21.7610   -4.2669 H         1 UNK         0.0788 
     97 H97        26.1603   23.1167   -4.0447 H         1 UNK         0.0788 
     98 H98        24.7930   23.2449   -5.1540 H         1 UNK         0.0788 
     99 H99        23.9687   22.0384   -1.4148 H         1 UNK         0.2993 
    100 H100       24.9458   21.8616    0.6000 H         1 UNK         0.0949 
    101 H101       26.9453   20.3597    0.8017 H         1 UNK         0.0767 
    102 H102       26.4132   20.3831   -0.8673 H         1 UNK         0.0767 
    103 H103       27.8200   21.3226   -0.3880 H         1 UNK         0.0767 
    104 H104       26.7145   24.0223    0.8598 H         1 UNK         0.3013 
    105 H105       27.5283   29.2944    0.6058 H         1 UNK         0.3121 
    106 H106       26.5170   27.9355    3.0117 H         1 UNK         0.0774 
    107 H107       24.7982   29.7150    3.3584 H         1 UNK         0.0815 
    108 H108       25.1611   30.4075    1.7822 H         1 UNK         0.0815 
    109 H109       24.4400   28.8050    1.8979 H         1 UNK         0.0815 
    110 H110       28.9466   28.2165    2.9758 H         1 UNK         0.2987 
    111 H111       30.0826   30.8557    3.1626 H         1 UNK         0.0949 
    112 H112       32.1791   29.5635    3.5591 H         1 UNK         0.0806 
    113 H113       31.2568   28.0924    3.8081 H         1 UNK         0.0806 
    114 H114       31.2876   28.8586    2.2206 H         1 UNK         0.0806 
    115 H115       31.4939   31.5119    4.9282 H         1 UNK         0.3010 
    116 H116       30.9378   30.4998    7.6337 H         1 UNK         0.0829 
    117 H117       29.6074   32.6353    7.4217 H         1 UNK         0.0813 
    118 H118       30.9787   32.8519    8.4982 H         1 UNK         0.0813 
    119 H119       31.0470   33.4817    6.8572 H         1 UNK         0.0813 
    120 H120       32.8088   30.7154    8.9347 H         1 UNK         0.3038 
    121 H121       34.9671   30.4849    9.4213 H         1 UNK         0.0769 
    122 H122       36.3889   32.4558    8.9623 H         1 UNK         0.0811 
    123 H123       34.7609   32.9852    9.3458 H         1 UNK         0.0811 
    124 H124       35.3155   32.9784    7.6720 H         1 UNK         0.0811 
    125 H125       34.1685   28.9012    7.1671 H         1 UNK         0.3204 
    126 H126       34.8413   27.6234    5.4804 H         1 UNK         0.0748 
    127 H127       37.1054   26.6404    5.6061 H         1 UNK         0.0771 
    128 H128       37.6545   27.9395    6.6556 H         1 UNK         0.0771 
    129 H129       36.4407   26.7935    7.2227 H         1 UNK         0.0771 
    130 H130       34.6226   30.4282    4.8794 H         1 UNK         0.2980 
    131 H131       34.8300   31.8331    3.2360 H         1 UNK         0.0545 
    132 H132       38.2778   32.6242    4.8454 H         1 UNK         0.3459 
    133 H133       37.1421   31.4347    5.4338 H         1 UNK         0.3459 
    134 H134       35.8035   31.3405    1.0192 H         1 UNK         0.0616 
    135 H135       36.5369   29.8807    1.6125 H         1 UNK         0.0616 
    136 H136       35.3806   27.7064    1.9760 H         1 UNK         0.0634 
    137 H137       35.3703   27.8970    0.2407 H         1 UNK         0.0634 
@<TRIPOS>BOND
     1    1    2 1    
     2    1   72 1    
     3    1   73 1    
     4    1   74 1    
     5    2    3 2    
     6    2    4 am   BACKBONE|DICT|INTERRES
     7    4    5 1    
     8    4   75 1    
     9    5    6 1    
    10    5   35 1    
    11    5   76 1    
    12    6    7 1    
    13    6   77 1    
    14    6   78 1    
    15    7    8 1    
    16    8    9 1    
    17    8   79 1    
    18    8   80 1    
    19    9   10 ar   
    20    9   14 ar   
    21   10   11 ar   
    22   10   81 1    
    23   11   12 ar   
    24   11   71 1    
    25   12   13 ar   
    26   12   82 1    
    27   13   14 ar   
    28   13   15 1    
    29   14   83 1    
    30   15   16 1    
    31   15   84 1    
    32   15   85 1    
    33   16   17 1    
    34   17   18 1    
    35   17   86 1    
    36   17   87 1    
    37   18   19 1    
    38   18   37 1    
    39   18   88 1    
    40   19   20 am   BACKBONE|DICT|INTERRES
    41   19   89 1    
    42   20   21 2    
    43   20   22 1    
    44   22   23 1    
    45   22   24 1    
    46   22   90 1    
    47   23   91 1    
    48   23   92 1    
    49   23   93 1    
    50   24   25 am   BACKBONE|DICT|INTERRES
    51   24   94 1    
    52   25   26 2    
    53   25   27 1    
    54   27   28 1    
    55   27   29 1    
    56   27   95 1    
    57   28   96 1    
    58   28   97 1    
    59   28   98 1    
    60   29   30 am   BACKBONE|DICT|INTERRES
    61   29   99 1    
    62   30   31 2    
    63   30   32 1    
    64   32   33 1    
    65   32   34 1    
    66   32  100 1    
    67   33  101 1    
    68   33  102 1    
    69   33  103 1    
    70   34   35 am   BACKBONE|DICT|INTERRES
    71   34  104 1    
    72   35   36 2    
    73   37   38 2    
    74   37   39 am   BACKBONE|DICT|INTERRES
    75   39   40 1    
    76   39  105 1    
    77   40   41 1    
    78   40   42 1    
    79   40  106 1    
    80   41  107 1    
    81   41  108 1    
    82   41  109 1    
    83   42   43 2    
    84   42   44 am   BACKBONE|DICT|INTERRES
    85   44   45 1    
    86   44  110 1    
    87   45   46 1    
    88   45   47 1    
    89   45  111 1    
    90   46  112 1    
    91   46  113 1    
    92   46  114 1    
    93   47   48 2    
    94   47   49 am   BACKBONE|DICT|INTERRES
    95   49   50 1    
    96   49  115 1    
    97   50   51 1    
    98   50   52 1    
    99   50  116 1    
   100   51  117 1    
   101   51  118 1    
   102   51  119 1    
   103   52   53 2    
   104   52   54 am   BACKBONE|DICT|INTERRES
   105   54   55 1    
   106   54  120 1    
   107   55   56 1    
   108   55   57 1    
   109   55  121 1    
   110   56  122 1    
   111   56  123 1    
   112   56  124 1    
   113   57   58 2    
   114   57   59 am   BACKBONE|DICT|INTERRES
   115   59   60 1    
   116   59  125 1    
   117   60   61 1    
   118   60   62 1    
   119   60  126 1    
   120   61  127 1    
   121   61  128 1    
   122   61  129 1    
   123   62   63 2    
   124   62   64 am   BACKBONE|DICT|INTERRES
   125   64   65 1    
   126   64  130 1    
   127   65   66 1    
   128   65   69 1    
   129   65  131 1    
   130   66   67 am   BACKBONE|DICT|INTERRES
   131   66   68 2    
   132   67  132 1    
   133   67  133 1    
   134   69   70 1    
   135   69  134 1    
   136   69  135 1    
   137   70   71 1    
   138   71  136 1    
   139   71  137 1    
@<TRIPOS>SUBSTRUCTURE
     1 UNK         1 GROUP             0       ****    0 ROOT    
