@<TRIPOS>MOLECULE
3R136
137   139    1
SMALL
USER_CHARGES


@<TRIPOS>ATOM
      1 CA         30.0198   27.5694    2.8668 C.3       0 UNK        -0.1979 
      2 C          29.1697   26.4478    3.4400 C.2       0 UNK         0.4864 
      3 O          28.4614   26.6505    4.4283 O.2       0 UNK        -0.5359 
      4 N          29.2173   25.2676    2.8138 N.am      1 UNK        -0.4318 
      5 CA         28.4021   24.0986    3.1495 C.3       1 UNK         0.0824 
      6 C6         29.0668   22.7791    2.6857 C.3       12 UNK        -0.0944 
      7 S7         30.5701   22.4074    3.6477 S.3       12 UNK        -0.2672 
      8 C8         31.8464   22.3181    2.3523 C.3       12 UNK         0.0333 
      9 C9         32.2549   23.6884    1.8272 C.ar      12 UNK        -0.0807 
     10 C10        32.9030   24.5961    2.6692 C.ar      12 UNK        -0.0894 
     11 C11        33.3482   25.8259    2.1780 C.ar      12 UNK        -0.0804 
     12 C12        33.1459   26.1429    0.8324 C.ar      12 UNK        -0.0824 
     13 C13        32.4650   25.2616   -0.0177 C.ar      12 UNK        -0.0762 
     14 C14        32.0277   24.0333    0.4912 C.ar      12 UNK        -0.0782 
     15 C15        32.2002   25.5759   -1.4924 C.3       12 UNK         0.0230 
     16 S16        32.3048   27.3351   -1.9866 S.3       12 UNK        -0.2608 
     17 C17        31.0636   28.1523   -0.9242 C.3       12 UNK        -0.0989 
     18 CA         29.7031   28.3835   -1.6407 C.3       5 UNK         0.0716 
     19 N          29.0114   27.1425   -2.0165 N.am      5 UNK        -0.4135 
     20 C          28.5844   26.1916   -1.1760 C.2       4 UNK         0.5031 
     21 O          28.7842   26.1971    0.0378 O.2       4 UNK        -0.5229 
     22 CA         27.7442   25.0656   -1.7930 C.3       4 UNK         0.0329 
     23 CB         28.3360   23.6825   -1.4778 C.3       4 UNK        -0.2001 
     24 N          26.3740   25.1465   -1.2874 N.am      4 UNK        -0.4303 
     25 C          25.5139   26.1250   -1.6084 C.2       3 UNK         0.5044 
     26 O          25.7769   27.0281   -2.4049 O.2       3 UNK        -0.5152 
     27 CA         24.1436   26.1217   -0.9079 C.3       3 UNK         0.0319 
     28 CB         23.1350   25.2735   -1.6983 C.3       3 UNK        -0.2001 
     29 N          24.1980   25.6507    0.4779 N.am      3 UNK        -0.4354 
     30 C          24.8640   26.2666    1.4642 C.2       2 UNK         0.4964 
     31 O          25.4818   27.3201    1.3152 O.2       2 UNK        -0.5047 
     32 CA         24.8577   25.6038    2.8526 C.3       2 UNK         0.0288 
     33 CB         23.8400   24.4496    3.0113 C.3       2 UNK        -0.2113 
     34 N          26.2081   25.1706    3.2206 N.am      2 UNK        -0.4145 
     35 C          26.9807   24.2814    2.5784 C.2       1 UNK         0.5006 
     36 O          26.6225   23.6472    1.5821 O.2       1 UNK        -0.5103 
     37 C          28.7888   29.3784   -0.8800 C.2       5 UNK         0.5055 
     38 O          29.3049   30.3060   -0.2551 O.2       5 UNK        -0.5220 
     39 N          27.4581   29.1984   -0.9669 N.am      6 UNK        -0.4450 
     40 CA         26.3875   30.1036   -0.5174 C.3       6 UNK         0.0367 
     41 CB         26.2327   31.2499   -1.5384 C.3       6 UNK        -0.1929 
     42 C          26.5150   30.6294    0.9305 C.2       6 UNK         0.5070 
     43 O          26.1211   31.7654    1.2016 O.2       6 UNK        -0.5237 
     44 N          27.0793   29.8060    1.8266 N.am      7 UNK        -0.4739 
     45 CA         27.3859   30.0960    3.2351 C.3       7 UNK         0.0276 
     46 CB         26.0821   30.2065    4.0535 C.3       7 UNK        -0.1927 
     47 C          28.3249   31.3078    3.4416 C.2       7 UNK         0.5013 
     48 O          28.2481   31.9596    4.4848 O.2       7 UNK        -0.5193 
     49 N          29.1780   31.6076    2.4482 N.am      8 UNK        -0.4253 
     50 CA         30.0044   32.8191    2.4010 C.3       8 UNK         0.0242 
     51 CB         30.6058   32.9735    0.9948 C.3       8 UNK        -0.2000 
     52 C          31.1136   32.8961    3.4644 C.2       8 UNK         0.4948 
     53 O          31.4341   34.0003    3.9079 O.2       8 UNK        -0.5275 
     54 N          31.6891   31.7504    3.8464 N.am      9 UNK        -0.4246 
     55 CA         32.7749   31.6390    4.8187 C.3       9 UNK         0.0261 
     56 CB         34.1125   32.0481    4.1700 C.3       9 UNK        -0.1959 
     57 C          32.8463   30.1973    5.3291 C.2       9 UNK         0.5033 
     58 O          32.3662   29.2881    4.6491 O.2       9 UNK        -0.5390 
     59 N          33.4657   30.0137    6.5005 N.am      10 UNK        -0.4215 
     60 CA         33.7838   28.7026    7.0676 C.3       10 UNK         0.0240 
     61 CB         33.9316   28.8362    8.5925 C.3       10 UNK        -0.1982 
     62 C          35.0760   28.1452    6.4481 C.2       10 UNK         0.4970 
     63 O          35.9598   28.9222    6.0776 O.2       10 UNK        -0.4916 
     64 N          35.1662   26.8141    6.3830 N.am      11 UNK        -0.4279 
     65 CA         36.3166   26.0546    5.8739 C.3       11 UNK         0.1003 
     66 C          36.7298   24.9712    6.9025 C.2       11 UNK         0.5709 
     67 N          37.9964   24.5794    6.9156 N.am      11 UNK        -0.7358 
     68 O          35.9118   24.4629    7.6688 O.2       11 UNK        -0.4999 
     69 C69        36.0188   25.4138    4.4904 C.3       12 UNK        -0.0954 
     70 S70        35.8138   26.6503    3.1649 S.3       12 UNK        -0.2268 
     71 C71        34.0055   26.8388    3.1022 C.3       12 UNK         0.0203 
     72 H72        30.2057   28.3297    3.6230 H         1 UNK         0.0888 
     73 H73        30.9816   27.1960    2.5231 H         1 UNK         0.0888 
     74 H74        29.5120   28.0374    2.0247 H         1 UNK         0.0888 
     75 H75        29.7402   25.1991    1.9502 H         1 UNK         0.3017 
     76 H76        28.2988   24.0449    4.2358 H         1 UNK         0.0873 
     77 H77        29.3014   22.8146    1.6214 H         1 UNK         0.0745 
     78 H78        28.3840   21.9377    2.8193 H         1 UNK         0.0745 
     79 H79        32.7281   21.8298    2.7699 H         1 UNK         0.0705 
     80 H80        31.4983   21.6721    1.5448 H         1 UNK         0.0705 
     81 H81        33.0562   24.3404    3.7081 H         1 UNK         0.1334 
     82 H82        33.5068   27.0913    0.4609 H         1 UNK         0.1417 
     83 H83        31.5231   23.3344   -0.1622 H         1 UNK         0.1562 
     84 H84        31.2186   25.1996   -1.7770 H         1 UNK         0.0748 
     85 H85        32.9210   25.0173   -2.0906 H         1 UNK         0.0748 
     86 H86        31.5069   29.1043   -0.6266 H         1 UNK         0.0940 
     87 H87        30.9279   27.5954    0.0014 H         1 UNK         0.0940 
     88 H88        29.9211   28.8879   -2.5833 H         1 UNK         0.0703 
     89 H89        28.7815   27.0564   -2.9968 H         1 UNK         0.3081 
     90 H90        27.7190   25.1817   -2.8787 H         1 UNK         0.0719 
     91 H91        28.4041   23.5088   -0.4050 H         1 UNK         0.0809 
     92 H92        27.7305   22.8843   -1.9073 H         1 UNK         0.0809 
     93 H93        29.3409   23.5841   -1.8888 H         1 UNK         0.0809 
     94 H94        26.1259   24.5022   -0.5470 H         1 UNK         0.2990 
     95 H95        23.7831   27.1525   -0.8925 H         1 UNK         0.0690 
     96 H96        23.0592   25.6195   -2.7302 H         1 UNK         0.0788 
     97 H97        22.1371   25.3356   -1.2638 H         1 UNK         0.0788 
     98 H98        23.4251   24.2223   -1.7275 H         1 UNK         0.0788 
     99 H99        23.7321   24.7795    0.6867 H         1 UNK         0.2993 
    100 H100       24.5804   26.3881    3.5586 H         1 UNK         0.0949 
    101 H101       23.8350   24.0766    4.0357 H         1 UNK         0.0767 
    102 H102       22.8258   24.7865    2.7923 H         1 UNK         0.0767 
    103 H103       24.0586   23.6038    2.3587 H         1 UNK         0.0767 
    104 H104       26.6572   25.7075    3.9560 H         1 UNK         0.3013 
    105 H105       27.1284   28.3839   -1.4735 H         1 UNK         0.3121 
    106 H106       25.4689   29.5152   -0.5380 H         1 UNK         0.0774 
    107 H107       25.3642   31.8690   -1.3103 H         1 UNK         0.0815 
    108 H108       27.1076   31.9013   -1.5426 H         1 UNK         0.0815 
    109 H109       26.0946   30.8656   -2.5490 H         1 UNK         0.0815 
    110 H110       27.2950   28.8699    1.5076 H         1 UNK         0.2987 
    111 H111       27.9249   29.2324    3.6196 H         1 UNK         0.0949 
    112 H112       25.5071   31.0920    3.7810 H         1 UNK         0.0806 
    113 H113       25.4468   29.3334    3.9029 H         1 UNK         0.0806 
    114 H114       26.2929   30.2707    5.1217 H         1 UNK         0.0806 
    115 H115       29.1584   31.0438    1.6022 H         1 UNK         0.3010 
    116 H116       29.3394   33.6683    2.5730 H         1 UNK         0.0829 
    117 H117       29.8258   33.0389    0.2358 H         1 UNK         0.0813 
    118 H118       31.2057   33.8816    0.9212 H         1 UNK         0.0813 
    119 H119       31.2515   32.1325    0.7387 H         1 UNK         0.0813 
    120 H120       31.3608   30.8657    3.4793 H         1 UNK         0.3038 
    121 H121       32.5601   32.2934    5.6664 H         1 UNK         0.0769 
    122 H122       34.9406   31.9452    4.8724 H         1 UNK         0.0811 
    123 H123       34.0984   33.0874    3.8418 H         1 UNK         0.0811 
    124 H124       34.3426   31.4267    3.3034 H         1 UNK         0.0811 
    125 H125       33.8762   30.8122    6.9629 H         1 UNK         0.3204 
    126 H126       32.9626   28.0139    6.8555 H         1 UNK         0.0748 
    127 H127       34.1403   27.8692    9.0523 H         1 UNK         0.0771 
    128 H128       34.7475   29.5080    8.8632 H         1 UNK         0.0771 
    129 H129       33.0174   29.2184    9.0473 H         1 UNK         0.0771 
    130 H130       34.4346   26.2462    6.7871 H         1 UNK         0.2980 
    131 H131       37.1724   26.7240    5.7658 H         1 UNK         0.0545 
    132 H132       38.2817   23.8679    7.5703 H         1 UNK         0.3459 
    133 H133       38.6737   24.9802    6.2852 H         1 UNK         0.3459 
    134 H134       36.8440   24.7669    4.1872 H         1 UNK         0.0616 
    135 H135       35.1402   24.7711    4.5428 H         1 UNK         0.0616 
    136 H136       33.5800   26.7657    4.1033 H         1 UNK         0.0634 
    137 H137       33.7790   27.8489    2.7575 H         1 UNK         0.0634 
@<TRIPOS>BOND
     1    1    2 1    
     2    1   72 1    
     3    1   73 1    
     4    1   74 1    
     5    2    3 2    
     6    2    4 am   BACKBONE|DICT|INTERRES
     7    4    5 1    
     8    4   75 1    
     9    5    6 1    
    10    5   35 1    
    11    5   76 1    
    12    6    7 1    
    13    6   77 1    
    14    6   78 1    
    15    7    8 1    
    16    8    9 1    
    17    8   79 1    
    18    8   80 1    
    19    9   10 ar   
    20    9   14 ar   
    21   10   11 ar   
    22   10   81 1    
    23   11   12 ar   
    24   11   71 1    
    25   12   13 ar   
    26   12   82 1    
    27   13   14 ar   
    28   13   15 1    
    29   14   83 1    
    30   15   16 1    
    31   15   84 1    
    32   15   85 1    
    33   16   17 1    
    34   17   18 1    
    35   17   86 1    
    36   17   87 1    
    37   18   19 1    
    38   18   37 1    
    39   18   88 1    
    40   19   20 am   BACKBONE|DICT|INTERRES
    41   19   89 1    
    42   20   21 2    
    43   20   22 1    
    44   22   23 1    
    45   22   24 1    
    46   22   90 1    
    47   23   91 1    
    48   23   92 1    
    49   23   93 1    
    50   24   25 am   BACKBONE|DICT|INTERRES
    51   24   94 1    
    52   25   26 2    
    53   25   27 1    
    54   27   28 1    
    55   27   29 1    
    56   27   95 1    
    57   28   96 1    
    58   28   97 1    
    59   28   98 1    
    60   29   30 am   BACKBONE|DICT|INTERRES
    61   29   99 1    
    62   30   31 2    
    63   30   32 1    
    64   32   33 1    
    65   32   34 1    
    66   32  100 1    
    67   33  101 1    
    68   33  102 1    
    69   33  103 1    
    70   34   35 am   BACKBONE|DICT|INTERRES
    71   34  104 1    
    72   35   36 2    
    73   37   38 2    
    74   37   39 am   BACKBONE|DICT|INTERRES
    75   39   40 1    
    76   39  105 1    
    77   40   41 1    
    78   40   42 1    
    79   40  106 1    
    80   41  107 1    
    81   41  108 1    
    82   41  109 1    
    83   42   43 2    
    84   42   44 am   BACKBONE|DICT|INTERRES
    85   44   45 1    
    86   44  110 1    
    87   45   46 1    
    88   45   47 1    
    89   45  111 1    
    90   46  112 1    
    91   46  113 1    
    92   46  114 1    
    93   47   48 2    
    94   47   49 am   BACKBONE|DICT|INTERRES
    95   49   50 1    
    96   49  115 1    
    97   50   51 1    
    98   50   52 1    
    99   50  116 1    
   100   51  117 1    
   101   51  118 1    
   102   51  119 1    
   103   52   53 2    
   104   52   54 am   BACKBONE|DICT|INTERRES
   105   54   55 1    
   106   54  120 1    
   107   55   56 1    
   108   55   57 1    
   109   55  121 1    
   110   56  122 1    
   111   56  123 1    
   112   56  124 1    
   113   57   58 2    
   114   57   59 am   BACKBONE|DICT|INTERRES
   115   59   60 1    
   116   59  125 1    
   117   60   61 1    
   118   60   62 1    
   119   60  126 1    
   120   61  127 1    
   121   61  128 1    
   122   61  129 1    
   123   62   63 2    
   124   62   64 am   BACKBONE|DICT|INTERRES
   125   64   65 1    
   126   64  130 1    
   127   65   66 1    
   128   65   69 1    
   129   65  131 1    
   130   66   67 am   BACKBONE|DICT|INTERRES
   131   66   68 2    
   132   67  132 1    
   133   67  133 1    
   134   69   70 1    
   135   69  134 1    
   136   69  135 1    
   137   70   71 1    
   138   71  136 1    
   139   71  137 1    
@<TRIPOS>SUBSTRUCTURE
     1 UNK         1 GROUP             0       ****    0 ROOT    
