@<TRIPOS>MOLECULE
3R136
137   139    1
SMALL
USER_CHARGES


@<TRIPOS>ATOM
      1 CA         34.6341   26.7934   -1.2840 C.3       0 UNK        -0.1979 
      2 C          34.4439   25.5650   -2.1697 C.2       0 UNK         0.4864 
      3 O          35.3611   25.2078   -2.9078 O.2       0 UNK        -0.5359 
      4 N          33.2930   24.8783   -2.1290 N.am      1 UNK        -0.4318 
      5 CA         32.0848   25.2105   -1.3647 C.3       1 UNK         0.0824 
      6 C6         31.2355   23.9384   -1.1047 C.3       12 UNK        -0.0944 
      7 S7         30.2356   24.0864    0.4122 S.3       12 UNK        -0.2672 
      8 C8         31.2729   23.1701    1.5899 C.3       12 UNK         0.0333 
      9 C9         30.7875   23.3822    3.0131 C.ar      12 UNK        -0.0807 
     10 C10        31.5496   24.1257    3.9184 C.ar      12 UNK        -0.0894 
     11 C11        31.0982   24.3276    5.2252 C.ar      12 UNK        -0.0804 
     12 C12        29.8680   23.7937    5.6212 C.ar      12 UNK        -0.0824 
     13 C13        29.0997   23.0442    4.7241 C.ar      12 UNK        -0.0762 
     14 C14        29.5719   22.8316    3.4260 C.ar      12 UNK        -0.0782 
     15 C15        27.7676   22.4489    5.1587 C.3       12 UNK         0.0230 
     16 S16        26.3793   23.0289    4.1307 S.3       12 UNK        -0.2608 
     17 C17        26.3720   24.8208    4.4830 C.3       12 UNK        -0.0989 
     18 CA         26.6846   25.6973    3.2329 C.3       5 UNK         0.0716 
     19 N          25.8044   25.4124    2.0903 N.am      5 UNK        -0.4135 
     20 C          24.4725   25.5621    2.0555 C.2       4 UNK         0.5031 
     21 O          23.8036   26.0348    2.9767 O.2       4 UNK        -0.5229 
     22 CA         23.7772   25.1271    0.7540 C.3       4 UNK         0.0329 
     23 CB         22.2414   25.1073    0.8758 C.3       4 UNK        -0.2001 
     24 N          24.1539   26.0348   -0.3258 N.am      4 UNK        -0.4303 
     25 C          25.2024   25.8711   -1.1405 C.2       3 UNK         0.5044 
     26 O          25.9120   24.8627   -1.1390 O.2       3 UNK        -0.5152 
     27 CA         25.5139   27.0264   -2.1173 C.3       3 UNK         0.0319 
     28 CB         24.8164   28.3564   -1.7523 C.3       3 UNK        -0.2001 
     29 N          26.9506   27.2661   -2.3039 N.am      3 UNK        -0.4354 
     30 C          27.8847   27.4343   -1.3559 C.2       2 UNK         0.4964 
     31 O          27.6860   27.3405   -0.1409 O.2       2 UNK        -0.5047 
     32 CA         29.2839   27.8030   -1.8570 C.3       2 UNK         0.0288 
     33 CB         29.6937   29.2000   -1.3654 C.3       2 UNK        -0.2113 
     34 N          30.2300   26.8115   -1.3633 N.am      2 UNK        -0.4145 
     35 C          31.2594   26.3178   -2.0598 C.2       1 UNK         0.5006 
     36 O          31.5542   26.6907   -3.1990 O.2       1 UNK        -0.5103 
     37 C          26.7078   27.2061    3.5744 C.2       5 UNK         0.5055 
     38 O          26.5616   27.5724    4.7439 O.2       5 UNK        -0.5220 
     39 N          26.8645   28.0655    2.5559 N.am      6 UNK        -0.4450 
     40 CA         26.9788   29.5159    2.7347 C.3       6 UNK         0.0367 
     41 CB         26.7117   30.2235    1.3968 C.3       6 UNK        -0.1929 
     42 C          28.3622   29.9028    3.2791 C.2       6 UNK         0.5070 
     43 O          29.3366   29.1855    3.0479 O.2       6 UNK        -0.5237 
     44 N          28.4410   31.0661    3.9418 N.am      7 UNK        -0.4739 
     45 CA         29.6655   31.6067    4.5525 C.3       7 UNK         0.0276 
     46 CB         29.3389   32.9189    5.2819 C.3       7 UNK        -0.1927 
     47 C          30.8331   31.8136    3.5692 C.2       7 UNK         0.5013 
     48 O          31.9937   31.7137    3.9730 O.2       7 UNK        -0.5193 
     49 N          30.5011   32.0220    2.2866 N.am      8 UNK        -0.4253 
     50 CA         31.4212   32.0657    1.1468 C.3       8 UNK         0.0242 
     51 CB         30.6402   32.4843   -0.1096 C.3       8 UNK        -0.2000 
     52 C          32.2112   30.7611    0.9054 C.2       8 UNK         0.4948 
     53 O          33.2007   30.7974    0.1742 O.2       8 UNK        -0.5275 
     54 N          31.8189   29.6519    1.5551 N.am      9 UNK        -0.4246 
     55 CA         32.5956   28.4111    1.6454 C.3       9 UNK         0.0261 
     56 CB         31.6684   27.2645    2.0810 C.3       9 UNK        -0.1959 
     57 C          33.8244   28.5116    2.5797 C.2       9 UNK         0.5033 
     58 O          34.5288   27.5145    2.7343 O.2       9 UNK        -0.5390 
     59 N          34.0512   29.6919    3.1798 N.am      10 UNK        -0.4215 
     60 CA         35.1541   30.1168    4.0538 C.3       10 UNK         0.0240 
     61 CB         36.5387   29.6450    3.5615 C.3       10 UNK        -0.1982 
     62 C          34.9271   29.8215    5.5445 C.2       10 UNK         0.4970 
     63 O          35.6833   30.3362    6.3696 O.2       10 UNK        -0.4916 
     64 N          33.8838   29.0531    5.8760 N.am      11 UNK        -0.4279 
     65 CA         33.4063   28.8331    7.2497 C.3       11 UNK         0.1003 
     66 C          32.4519   29.9407    7.7865 C.2       11 UNK         0.5709 
     67 N          32.1189   30.9733    7.0205 N.am      11 UNK        -0.7358 
     68 O          32.0270   29.8801    8.9379 O.2       11 UNK        -0.4999 
     69 C69        32.8507   27.3986    7.4513 C.3       12 UNK        -0.0954 
     70 S70        31.6136   26.8693    6.2166 S.3       12 UNK        -0.2268 
     71 C71        31.9635   25.0852    6.2178 C.3       12 UNK         0.0203 
     72 H72        33.8892   27.5563   -1.5073 H         1 UNK         0.0888 
     73 H73        34.5712   26.5250   -0.2297 H         1 UNK         0.0888 
     74 H74        35.6159   27.2359   -1.4515 H         1 UNK         0.0888 
     75 H75        33.1949   24.0910   -2.7536 H         1 UNK         0.3017 
     76 H76        32.4069   25.6044   -0.3997 H         1 UNK         0.0873 
     77 H77        31.8791   23.0630   -0.9990 H         1 UNK         0.0745 
     78 H78        30.5780   23.7134   -1.9472 H         1 UNK         0.0745 
     79 H79        31.2498   22.1068    1.3467 H         1 UNK         0.0705 
     80 H80        32.3102   23.4934    1.4870 H         1 UNK         0.0705 
     81 H81        32.4994   24.5426    3.6120 H         1 UNK         0.1334 
     82 H82        29.5173   23.9529    6.6319 H         1 UNK         0.1417 
     83 H83        28.9807   22.2545    2.7275 H         1 UNK         0.1562 
     84 H84        27.5562   22.6789    6.2043 H         1 UNK         0.0748 
     85 H85        27.8269   21.3619    5.0896 H         1 UNK         0.0748 
     86 H86        27.0909   25.0310    5.2771 H         1 UNK         0.0940 
     87 H87        25.3955   25.0759    4.8981 H         1 UNK         0.0940 
     88 H88        27.6961   25.4513    2.9041 H         1 UNK         0.0703 
     89 H89        26.2634   25.0634    1.2587 H         1 UNK         0.3081 
     90 H90        24.1049   24.1104    0.5252 H         1 UNK         0.0719 
     91 H91        21.9232   24.4371    1.6755 H         1 UNK         0.0809 
     92 H92        21.8371   26.0958    1.0978 H         1 UNK         0.0809 
     93 H93        21.7763   24.7547   -0.0450 H         1 UNK         0.0809 
     94 H94        23.6439   26.9050   -0.3756 H         1 UNK         0.2990 
     95 H95        25.1313   26.7074   -3.0878 H         1 UNK         0.0690 
     96 H96        25.0933   29.1490   -2.4478 H         1 UNK         0.0788 
     97 H97        25.0869   28.6898   -0.7511 H         1 UNK         0.0788 
     98 H98        23.7302   28.2681   -1.7973 H         1 UNK         0.0788 
     99 H99        27.2468   27.3229   -3.2682 H         1 UNK         0.2993 
    100 H100       29.2804   27.8049   -2.9495 H         1 UNK         0.0949 
    101 H101       30.6931   29.4664   -1.7103 H         1 UNK         0.0767 
    102 H102       29.0051   29.9592   -1.7376 H         1 UNK         0.0767 
    103 H103       29.6888   29.2559   -0.2763 H         1 UNK         0.0767 
    104 H104       29.9908   26.3947   -0.4712 H         1 UNK         0.3013 
    105 H105       27.0621   27.7065    1.6240 H         1 UNK         0.3121 
    106 H106       26.2218   29.8395    3.4525 H         1 UNK         0.0774 
    107 H107       27.4187   29.9167    0.6262 H         1 UNK         0.0815 
    108 H108       25.7052   30.0136    1.0382 H         1 UNK         0.0815 
    109 H109       26.7927   31.3063    1.4994 H         1 UNK         0.0815 
    110 H110       27.5967   31.6051    4.0754 H         1 UNK         0.2987 
    111 H111       29.9978   30.8742    5.2903 H         1 UNK         0.0949 
    112 H112       28.5986   32.7638    6.0669 H         1 UNK         0.0806 
    113 H113       30.2289   33.3342    5.7571 H         1 UNK         0.0806 
    114 H114       28.9523   33.6759    4.5983 H         1 UNK         0.0806 
    115 H115       29.5169   32.0784    2.0709 H         1 UNK         0.3010 
    116 H116       32.1623   32.8394    1.3577 H         1 UNK         0.0829 
    117 H117       29.7984   31.8205   -0.3032 H         1 UNK         0.0813 
    118 H118       31.2780   32.4732   -0.9948 H         1 UNK         0.0813 
    119 H119       30.2482   33.4967   -0.0101 H         1 UNK         0.0813 
    120 H120       30.9676   29.6772    2.1125 H         1 UNK         0.3038 
    121 H121       32.9669   28.1823    0.6465 H         1 UNK         0.0769 
    122 H122       30.7702   27.2156    1.4661 H         1 UNK         0.0811 
    123 H123       31.3504   27.3746    3.1185 H         1 UNK         0.0811 
    124 H124       32.1736   26.3027    1.9972 H         1 UNK         0.0811 
    125 H125       33.3441   30.4082    3.0490 H         1 UNK         0.3204 
    126 H126       35.1518   31.2053    3.9785 H         1 UNK         0.0748 
    127 H127       36.6787   28.5730    3.7017 H         1 UNK         0.0771 
    128 H128       36.6850   29.8711    2.5053 H         1 UNK         0.0771 
    129 H129       37.3362   30.1445    4.1130 H         1 UNK         0.0771 
    130 H130       33.3104   28.6627    5.1433 H         1 UNK         0.2980 
    131 H131       34.2735   28.9006    7.9093 H         1 UNK         0.0545 
    132 H132       32.4511   31.0542    6.0701 H         1 UNK         0.3459 
    133 H133       31.5229   31.6866    7.4072 H         1 UNK         0.3459 
    134 H134       32.4239   27.2746    8.4481 H         1 UNK         0.0616 
    135 H135       33.6916   26.7046    7.4120 H         1 UNK         0.0616 
    136 H136       33.0168   24.9242    5.9820 H         1 UNK         0.0634 
    137 H137       31.8103   24.6910    7.2237 H         1 UNK         0.0634 
@<TRIPOS>BOND
     1    1    2 1    
     2    1   72 1    
     3    1   73 1    
     4    1   74 1    
     5    2    3 2    
     6    2    4 am   BACKBONE|DICT|INTERRES
     7    4    5 1    
     8    4   75 1    
     9    5    6 1    
    10    5   35 1    
    11    5   76 1    
    12    6    7 1    
    13    6   77 1    
    14    6   78 1    
    15    7    8 1    
    16    8    9 1    
    17    8   79 1    
    18    8   80 1    
    19    9   10 ar   
    20    9   14 ar   
    21   10   11 ar   
    22   10   81 1    
    23   11   12 ar   
    24   11   71 1    
    25   12   13 ar   
    26   12   82 1    
    27   13   14 ar   
    28   13   15 1    
    29   14   83 1    
    30   15   16 1    
    31   15   84 1    
    32   15   85 1    
    33   16   17 1    
    34   17   18 1    
    35   17   86 1    
    36   17   87 1    
    37   18   19 1    
    38   18   37 1    
    39   18   88 1    
    40   19   20 am   BACKBONE|DICT|INTERRES
    41   19   89 1    
    42   20   21 2    
    43   20   22 1    
    44   22   23 1    
    45   22   24 1    
    46   22   90 1    
    47   23   91 1    
    48   23   92 1    
    49   23   93 1    
    50   24   25 am   BACKBONE|DICT|INTERRES
    51   24   94 1    
    52   25   26 2    
    53   25   27 1    
    54   27   28 1    
    55   27   29 1    
    56   27   95 1    
    57   28   96 1    
    58   28   97 1    
    59   28   98 1    
    60   29   30 am   BACKBONE|DICT|INTERRES
    61   29   99 1    
    62   30   31 2    
    63   30   32 1    
    64   32   33 1    
    65   32   34 1    
    66   32  100 1    
    67   33  101 1    
    68   33  102 1    
    69   33  103 1    
    70   34   35 am   BACKBONE|DICT|INTERRES
    71   34  104 1    
    72   35   36 2    
    73   37   38 2    
    74   37   39 am   BACKBONE|DICT|INTERRES
    75   39   40 1    
    76   39  105 1    
    77   40   41 1    
    78   40   42 1    
    79   40  106 1    
    80   41  107 1    
    81   41  108 1    
    82   41  109 1    
    83   42   43 2    
    84   42   44 am   BACKBONE|DICT|INTERRES
    85   44   45 1    
    86   44  110 1    
    87   45   46 1    
    88   45   47 1    
    89   45  111 1    
    90   46  112 1    
    91   46  113 1    
    92   46  114 1    
    93   47   48 2    
    94   47   49 am   BACKBONE|DICT|INTERRES
    95   49   50 1    
    96   49  115 1    
    97   50   51 1    
    98   50   52 1    
    99   50  116 1    
   100   51  117 1    
   101   51  118 1    
   102   51  119 1    
   103   52   53 2    
   104   52   54 am   BACKBONE|DICT|INTERRES
   105   54   55 1    
   106   54  120 1    
   107   55   56 1    
   108   55   57 1    
   109   55  121 1    
   110   56  122 1    
   111   56  123 1    
   112   56  124 1    
   113   57   58 2    
   114   57   59 am   BACKBONE|DICT|INTERRES
   115   59   60 1    
   116   59  125 1    
   117   60   61 1    
   118   60   62 1    
   119   60  126 1    
   120   61  127 1    
   121   61  128 1    
   122   61  129 1    
   123   62   63 2    
   124   62   64 am   BACKBONE|DICT|INTERRES
   125   64   65 1    
   126   64  130 1    
   127   65   66 1    
   128   65   69 1    
   129   65  131 1    
   130   66   67 am   BACKBONE|DICT|INTERRES
   131   66   68 2    
   132   67  132 1    
   133   67  133 1    
   134   69   70 1    
   135   69  134 1    
   136   69  135 1    
   137   70   71 1    
   138   71  136 1    
   139   71  137 1    
@<TRIPOS>SUBSTRUCTURE
     1 UNK         1 GROUP             0       ****    0 ROOT    
