@<TRIPOS>MOLECULE
3R136
137   139    1
SMALL
USER_CHARGES


@<TRIPOS>ATOM
      1 CA         26.6390   21.3119   -1.2146 C.3       0 UNK        -0.1979 
      2 C          27.5019   21.9104   -0.1145 C.2       0 UNK         0.4864 
      3 O          27.2244   21.6862    1.0650 O.2       0 UNK        -0.5359 
      4 N          28.5346   22.6790   -0.4919 N.am      1 UNK        -0.4318 
      5 CA         29.5003   23.3466    0.3920 C.3       1 UNK         0.0824 
      6 C6         30.5184   22.3564    1.0285 C.3       12 UNK        -0.0944 
      7 S7         31.6951   21.7493   -0.2323 S.3       12 UNK        -0.2672 
      8 C8         33.2098   22.7141    0.1170 C.3       12 UNK         0.0333 
      9 C9         32.9217   24.1950    0.3292 C.ar      12 UNK        -0.0807 
     10 C10        33.0418   24.7534    1.6056 C.ar      12 UNK        -0.0894 
     11 C11        32.6798   26.0827    1.8345 C.ar      12 UNK        -0.0804 
     12 C12        32.1909   26.8541    0.7785 C.ar      12 UNK        -0.0824 
     13 C13        32.0858   26.3143   -0.5055 C.ar      12 UNK        -0.0762 
     14 C14        32.4794   24.9915   -0.7320 C.ar      12 UNK        -0.0782 
     15 C15        31.5034   27.1460   -1.6354 C.3       12 UNK         0.0230 
     16 S16        29.7754   26.6641   -1.9504 S.3       12 UNK        -0.2608 
     17 C17        28.8908   28.2648   -1.9214 C.3       12 UNK        -0.0989 
     18 CA         27.9606   28.4685   -0.6911 C.3       5 UNK         0.0716 
     19 N          27.0650   27.3312   -0.4570 N.am      5 UNK        -0.4135 
     20 C          25.8932   27.1608   -1.0800 C.2       4 UNK         0.5031 
     21 O          25.3555   28.0329   -1.7645 O.2       4 UNK        -0.5229 
     22 CA         25.2083   25.7903   -0.9731 C.3       4 UNK         0.0329 
     23 CB         25.7832   24.8377   -2.0349 C.3       4 UNK        -0.2001 
     24 N          25.3202   25.1614    0.3491 N.am      4 UNK        -0.4303 
     25 C          24.2693   24.7104    1.0547 C.2       3 UNK         0.5044 
     26 O          23.0985   24.8982    0.7197 O.2       3 UNK        -0.5152 
     27 CA         24.5296   23.8774    2.3265 C.3       3 UNK         0.0319 
     28 CB         24.0290   22.4349    2.1366 C.3       3 UNK        -0.2001 
     29 N          25.9393   23.8377    2.7166 N.am      3 UNK        -0.4354 
     30 C          26.5175   24.7273    3.5360 C.2       2 UNK         0.4964 
     31 O          25.8952   25.6197    4.1111 O.2       2 UNK        -0.5047 
     32 CA         28.0439   24.6333    3.7407 C.3       2 UNK         0.0288 
     33 CB         28.3746   23.9985    5.1006 C.3       2 UNK        -0.2113 
     34 N          28.7590   23.9094    2.6845 N.am      2 UNK        -0.4145 
     35 C          28.7779   24.2693    1.3935 C.2       1 UNK         0.5006 
     36 O          28.1863   25.2614    0.9632 O.2       1 UNK        -0.5103 
     37 C          28.6736   28.9114    0.6002 C.2       5 UNK         0.5055 
     38 O          29.8225   29.3558    0.5581 O.2       5 UNK        -0.5220 
     39 N          27.9419   28.8874    1.7244 N.am      6 UNK        -0.4450 
     40 CA         28.3663   29.3760    3.0465 C.3       6 UNK         0.0367 
     41 CB         27.3992   28.8397    4.1146 C.3       6 UNK        -0.1929 
     42 C          28.5350   30.9101    3.1624 C.2       6 UNK         0.5070 
     43 O          28.6332   31.4291    4.2750 O.2       6 UNK        -0.5237 
     44 N          28.5798   31.6189    2.0278 N.am      7 UNK        -0.4739 
     45 CA         29.0206   33.0098    1.9307 C.3       7 UNK         0.0276 
     46 CB         28.4959   33.6123    0.6174 C.3       7 UNK        -0.1927 
     47 C          30.5547   33.1323    2.0075 C.2       7 UNK         0.5013 
     48 O          31.0505   34.2030    2.3615 O.2       7 UNK        -0.5193 
     49 N          31.2791   32.0511    1.6751 N.am      8 UNK        -0.4253 
     50 CA         32.7334   31.9598    1.8007 C.3       8 UNK         0.0242 
     51 CB         33.2357   30.7414    1.0114 C.3       8 UNK        -0.2000 
     52 C          33.1359   31.8375    3.2772 C.2       8 UNK         0.4948 
     53 O          32.5502   31.0265    3.9981 O.2       8 UNK        -0.5275 
     54 N          34.1565   32.6009    3.6902 N.am      9 UNK        -0.4246 
     55 CA         34.6290   32.7299    5.0775 C.3       9 UNK         0.0261 
     56 CB         35.7675   33.7630    5.1217 C.3       9 UNK        -0.1959 
     57 C          35.0672   31.4213    5.7663 C.2       9 UNK         0.5033 
     58 O          35.1429   31.3887    6.9954 O.2       9 UNK        -0.5390 
     59 N          35.3369   30.3717    4.9793 N.am      10 UNK        -0.4215 
     60 CA         35.6546   29.0246    5.4509 C.3       10 UNK         0.0240 
     61 CB         36.1916   28.1928    4.2737 C.3       10 UNK        -0.1982 
     62 C          34.4801   28.3010    6.1401 C.2       10 UNK         0.4970 
     63 O          34.7439   27.3977    6.9353 O.2       10 UNK        -0.4916 
     64 N          33.2282   28.6805    5.8404 N.am      11 UNK        -0.4279 
     65 CA         32.0258   28.0598    6.4260 C.3       11 UNK         0.1003 
     66 C          30.7691   28.9711    6.4930 C.2       11 UNK         0.5709 
     67 N          30.7533   30.1464    5.8818 N.am      11 UNK        -0.7358 
     68 O          29.7875   28.6090    7.1374 O.2       11 UNK        -0.4999 
     69 C69        31.7206   26.6542    5.8320 C.3       12 UNK        -0.0954 
     70 S70        31.1972   26.6568    4.0828 S.3       12 UNK        -0.2268 
     71 C71        32.7977   26.6770    3.2262 C.3       12 UNK         0.0203 
     72 H72        26.9407   21.6561   -2.2036 H         1 UNK         0.0888 
     73 H73        26.7114   20.2249   -1.1956 H         1 UNK         0.0888 
     74 H74        25.5953   21.5858   -1.0637 H         1 UNK         0.0888 
     75 H75        28.6950   22.8295   -1.4777 H         1 UNK         0.3017 
     76 H76        30.0499   24.0341   -0.2483 H         1 UNK         0.0873 
     77 H77        31.0821   22.8173    1.8400 H         1 UNK         0.0745 
     78 H78        30.0072   21.4987    1.4689 H         1 UNK         0.0745 
     79 H79        33.7012   22.2881    0.9931 H         1 UNK         0.0705 
     80 H80        33.9074   22.5948   -0.7131 H         1 UNK         0.0705 
     81 H81        33.3874   24.1448    2.4302 H         1 UNK         0.1334 
     82 H82        31.8692   27.8682    0.9627 H         1 UNK         0.1417 
     83 H83        32.3754   24.5614   -1.7192 H         1 UNK         0.1562 
     84 H84        32.0882   27.0008   -2.5447 H         1 UNK         0.0748 
     85 H85        31.5730   28.2071   -1.3921 H         1 UNK         0.0748 
     86 H86        28.2797   28.2965   -2.8246 H         1 UNK         0.0940 
     87 H87        29.5887   29.0962   -2.0322 H         1 UNK         0.0940 
     88 H88        27.3409   29.3364   -0.9269 H         1 UNK         0.0703 
     89 H89        27.4752   26.5628    0.0757 H         1 UNK         0.3081 
     90 H90        24.1588   25.9588   -1.2230 H         1 UNK         0.0719 
     91 H91        26.8367   24.6223   -1.8541 H         1 UNK         0.0809 
     92 H92        25.2402   23.8933   -2.0537 H         1 UNK         0.0809 
     93 H93        25.7074   25.2723   -3.0327 H         1 UNK         0.0809 
     94 H94        26.2575   25.0185    0.7106 H         1 UNK         0.2990 
     95 H95        23.9416   24.3263    3.1300 H         1 UNK         0.0690 
     96 H96        24.1859   21.8387    3.0356 H         1 UNK         0.0788 
     97 H97        24.5356   21.9353    1.3106 H         1 UNK         0.0788 
     98 H98        22.9600   22.4163    1.9202 H         1 UNK         0.0788 
     99 H99        26.5089   23.1171    2.2801 H         1 UNK         0.2993 
    100 H100       28.4228   25.6565    3.7406 H         1 UNK         0.0949 
    101 H101       29.4466   24.0245    5.2990 H         1 UNK         0.0767 
    102 H102       27.8852   24.5386    5.9125 H         1 UNK         0.0767 
    103 H103       28.0451   22.9600    5.1522 H         1 UNK         0.0767 
    104 H104       29.2192   23.0529    2.9549 H         1 UNK         0.3013 
    105 H105       26.9940   28.5450    1.6597 H         1 UNK         0.3121 
    106 H106       29.3519   28.9521    3.2497 H         1 UNK         0.0774 
    107 H107       27.7136   29.1311    5.1177 H         1 UNK         0.0815 
    108 H108       26.3850   29.2119    3.9672 H         1 UNK         0.0815 
    109 H109       27.3669   27.7531    4.1028 H         1 UNK         0.0815 
    110 H110       28.5116   31.1063    1.1606 H         1 UNK         0.2987 
    111 H111       28.5993   33.5759    2.7648 H         1 UNK         0.0949 
    112 H112       28.8878   33.0871   -0.2546 H         1 UNK         0.0806 
    113 H113       27.4073   33.5759    0.5713 H         1 UNK         0.0806 
    114 H114       28.7879   34.6595    0.5257 H         1 UNK         0.0806 
    115 H115       30.7928   31.1997    1.4208 H         1 UNK         0.3010 
    116 H116       33.1750   32.8623    1.3724 H         1 UNK         0.0829 
    117 H117       32.9105   30.7755   -0.0286 H         1 UNK         0.0813 
    118 H118       34.3254   30.6964    1.0109 H         1 UNK         0.0813 
    119 H119       32.8722   29.8109    1.4460 H         1 UNK         0.0813 
    120 H120       34.5942   33.2149    3.0178 H         1 UNK         0.3038 
    121 H121       33.7931   33.1212    5.6609 H         1 UNK         0.0769 
    122 H122       36.6227   33.4462    4.5235 H         1 UNK         0.0811 
    123 H123       36.1223   33.9125    6.1427 H         1 UNK         0.0811 
    124 H124       35.4387   34.7347    4.7526 H         1 UNK         0.0811 
    125 H125       35.2473   30.4984    3.9822 H         1 UNK         0.3204 
    126 H126       36.4520   29.1124    6.1921 H         1 UNK         0.0748 
    127 H127       36.4192   27.1721    4.5852 H         1 UNK         0.0771 
    128 H128       35.4740   28.1320    3.4557 H         1 UNK         0.0771 
    129 H129       37.1132   28.6197    3.8773 H         1 UNK         0.0771 
    130 H130       33.0718   29.4419    5.1896 H         1 UNK         0.2980 
    131 H131       32.2596   27.9001    7.4805 H         1 UNK         0.0545 
    132 H132       31.5058   30.4545    5.2708 H         1 UNK         0.3459 
    133 H133       29.9025   30.6905    5.8959 H         1 UNK         0.3459 
    134 H134       32.5827   25.9962    5.9455 H         1 UNK         0.0616 
    135 H135       30.9256   26.1765    6.4071 H         1 UNK         0.0616 
    136 H136       33.5429   26.1300    3.8055 H         1 UNK         0.0634 
    137 H137       33.1468   27.7077    3.1589 H         1 UNK         0.0634 
@<TRIPOS>BOND
     1    1    2 1    
     2    1   72 1    
     3    1   73 1    
     4    1   74 1    
     5    2    3 2    
     6    2    4 am   BACKBONE|DICT|INTERRES
     7    4    5 1    
     8    4   75 1    
     9    5    6 1    
    10    5   35 1    
    11    5   76 1    
    12    6    7 1    
    13    6   77 1    
    14    6   78 1    
    15    7    8 1    
    16    8    9 1    
    17    8   79 1    
    18    8   80 1    
    19    9   10 ar   
    20    9   14 ar   
    21   10   11 ar   
    22   10   81 1    
    23   11   12 ar   
    24   11   71 1    
    25   12   13 ar   
    26   12   82 1    
    27   13   14 ar   
    28   13   15 1    
    29   14   83 1    
    30   15   16 1    
    31   15   84 1    
    32   15   85 1    
    33   16   17 1    
    34   17   18 1    
    35   17   86 1    
    36   17   87 1    
    37   18   19 1    
    38   18   37 1    
    39   18   88 1    
    40   19   20 am   BACKBONE|DICT|INTERRES
    41   19   89 1    
    42   20   21 2    
    43   20   22 1    
    44   22   23 1    
    45   22   24 1    
    46   22   90 1    
    47   23   91 1    
    48   23   92 1    
    49   23   93 1    
    50   24   25 am   BACKBONE|DICT|INTERRES
    51   24   94 1    
    52   25   26 2    
    53   25   27 1    
    54   27   28 1    
    55   27   29 1    
    56   27   95 1    
    57   28   96 1    
    58   28   97 1    
    59   28   98 1    
    60   29   30 am   BACKBONE|DICT|INTERRES
    61   29   99 1    
    62   30   31 2    
    63   30   32 1    
    64   32   33 1    
    65   32   34 1    
    66   32  100 1    
    67   33  101 1    
    68   33  102 1    
    69   33  103 1    
    70   34   35 am   BACKBONE|DICT|INTERRES
    71   34  104 1    
    72   35   36 2    
    73   37   38 2    
    74   37   39 am   BACKBONE|DICT|INTERRES
    75   39   40 1    
    76   39  105 1    
    77   40   41 1    
    78   40   42 1    
    79   40  106 1    
    80   41  107 1    
    81   41  108 1    
    82   41  109 1    
    83   42   43 2    
    84   42   44 am   BACKBONE|DICT|INTERRES
    85   44   45 1    
    86   44  110 1    
    87   45   46 1    
    88   45   47 1    
    89   45  111 1    
    90   46  112 1    
    91   46  113 1    
    92   46  114 1    
    93   47   48 2    
    94   47   49 am   BACKBONE|DICT|INTERRES
    95   49   50 1    
    96   49  115 1    
    97   50   51 1    
    98   50   52 1    
    99   50  116 1    
   100   51  117 1    
   101   51  118 1    
   102   51  119 1    
   103   52   53 2    
   104   52   54 am   BACKBONE|DICT|INTERRES
   105   54   55 1    
   106   54  120 1    
   107   55   56 1    
   108   55   57 1    
   109   55  121 1    
   110   56  122 1    
   111   56  123 1    
   112   56  124 1    
   113   57   58 2    
   114   57   59 am   BACKBONE|DICT|INTERRES
   115   59   60 1    
   116   59  125 1    
   117   60   61 1    
   118   60   62 1    
   119   60  126 1    
   120   61  127 1    
   121   61  128 1    
   122   61  129 1    
   123   62   63 2    
   124   62   64 am   BACKBONE|DICT|INTERRES
   125   64   65 1    
   126   64  130 1    
   127   65   66 1    
   128   65   69 1    
   129   65  131 1    
   130   66   67 am   BACKBONE|DICT|INTERRES
   131   66   68 2    
   132   67  132 1    
   133   67  133 1    
   134   69   70 1    
   135   69  134 1    
   136   69  135 1    
   137   70   71 1    
   138   71  136 1    
   139   71  137 1    
@<TRIPOS>SUBSTRUCTURE
     1 UNK         1 GROUP             0       ****    0 ROOT    
