@<TRIPOS>MOLECULE
3R136
137   139    1
SMALL
USER_CHARGES


@<TRIPOS>ATOM
      1 CA         28.9320   18.7102   -3.7686 C.3       0 UNK        -0.1979 
      2 C          29.0786   20.1047   -3.1777 C.2       0 UNK         0.4864 
      3 O          29.4619   21.0338   -3.8902 O.2       0 UNK        -0.5359 
      4 N          28.7833   20.2577   -1.8800 N.am      1 UNK        -0.4318 
      5 CA         28.8062   21.5332   -1.1621 C.3       1 UNK         0.0824 
      6 C6         28.8478   21.3058    0.3694 C.3       12 UNK        -0.0944 
      7 S7         29.2249   22.8291    1.2987 S.3       12 UNK        -0.2672 
      8 C8         30.7114   22.3320    2.2284 C.3       12 UNK         0.0333 
      9 C9         31.0972   23.3962    3.2451 C.ar      12 UNK        -0.0807 
     10 C10        32.2564   24.1609    3.0849 C.ar      12 UNK        -0.0894 
     11 C11        32.5804   25.1593    4.0103 C.ar      12 UNK        -0.0804 
     12 C12        31.7332   25.3943    5.0990 C.ar      12 UNK        -0.0824 
     13 C13        30.5743   24.6306    5.2732 C.ar      12 UNK        -0.0762 
     14 C14        30.2764   23.6220    4.3511 C.ar      12 UNK        -0.0782 
     15 C15        29.6598   24.8677    6.4696 C.3       12 UNK         0.0230 
     16 S16        27.9002   24.9417    5.9917 S.3       12 UNK        -0.2608 
     17 C17        27.5338   26.7264    5.9666 C.3       12 UNK        -0.0989 
     18 CA         28.4375   27.6154    5.0711 C.3       5 UNK         0.0716 
     19 N          28.6184   27.0777    3.7158 N.am      5 UNK        -0.4135 
     20 C          29.3308   27.6646    2.7413 C.2       4 UNK         0.5031 
     21 O          29.9975   28.6851    2.9051 O.2       4 UNK        -0.5229 
     22 CA         29.2068   27.1069    1.3139 C.3       4 UNK         0.0329 
     23 CB         30.4714   26.3520    0.8899 C.3       4 UNK        -0.2001 
     24 N          28.0217   26.2803    1.0624 N.am      4 UNK        -0.4303 
     25 C          26.7492   26.6887    1.1828 C.2       3 UNK         0.5044 
     26 O          26.4308   27.7843    1.6545 O.2       3 UNK        -0.5152 
     27 CA         25.6633   25.7063    0.6972 C.3       3 UNK         0.0319 
     28 CB         24.2977   26.3947    0.4906 C.3       3 UNK        -0.2001 
     29 N          26.0533   24.9566   -0.5075 N.am      3 UNK        -0.4354 
     30 C          26.4201   25.4597   -1.6977 C.2       2 UNK         0.4964 
     31 O          26.4618   26.6650   -1.9485 O.2       2 UNK        -0.5047 
     32 CA         26.8350   24.4394   -2.7776 C.3       2 UNK         0.0288 
     33 CB         27.3655   25.1123   -4.0584 C.3       2 UNK        -0.2113 
     34 N          27.8502   23.5026   -2.2854 N.am      2 UNK        -0.4145 
     35 C          27.5946   22.3879   -1.5890 C.2       1 UNK         0.5006 
     36 O          26.4568   22.0335   -1.2697 O.2       1 UNK        -0.5103 
     37 C          27.8602   29.0505    5.0757 C.2       5 UNK         0.5055 
     38 O          28.1861   29.8239    5.9764 O.2       5 UNK        -0.5220 
     39 N          27.0120   29.3664    4.0856 N.am      6 UNK        -0.4450 
     40 CA         26.4165   30.6849    3.8802 C.3       6 UNK         0.0367 
     41 CB         24.8865   30.5440    3.8222 C.3       6 UNK        -0.1929 
     42 C          26.9395   31.3388    2.5936 C.2       6 UNK         0.5070 
     43 O          27.1729   32.5472    2.5914 O.2       6 UNK        -0.5237 
     44 N          27.1017   30.5499    1.5198 N.am      7 UNK        -0.4739 
     45 CA         27.4801   31.0415    0.1906 C.3       7 UNK         0.0276 
     46 CB         27.1460   29.9773   -0.8679 C.3       7 UNK        -0.1927 
     47 C          28.9469   31.4933    0.0743 C.2       7 UNK         0.5013 
     48 O          29.2393   32.3268   -0.7846 O.2       7 UNK        -0.5193 
     49 N          29.8317   30.9569    0.9250 N.am      8 UNK        -0.4253 
     50 CA         31.2340   31.3646    1.0328 C.3       8 UNK         0.0242 
     51 CB         32.1598   30.1890    0.6766 C.3       8 UNK        -0.2000 
     52 C          31.5177   31.8951    2.4425 C.2       8 UNK         0.4948 
     53 O          32.0692   32.9885    2.5718 O.2       8 UNK        -0.5275 
     54 N          31.1288   31.1235    3.4693 N.am      9 UNK        -0.4246 
     55 CA         31.1696   31.3937    4.9149 C.3       9 UNK         0.0261 
     56 CB         30.2768   32.5953    5.2785 C.3       9 UNK        -0.1959 
     57 C          32.5755   31.5423    5.5250 C.2       9 UNK         0.5033 
     58 O          32.8228   31.0044    6.6043 O.2       9 UNK        -0.5390 
     59 N          33.4721   32.2512    4.8320 N.am      10 UNK        -0.4215 
     60 CA         34.8696   32.4741    5.2088 C.3       10 UNK         0.0240 
     61 CB         35.3764   33.7324    4.4831 C.3       10 UNK        -0.1982 
     62 C          35.7892   31.2721    4.9169 C.2       10 UNK         0.4970 
     63 O          36.9557   31.3093    5.3123 O.2       10 UNK        -0.4916 
     64 N          35.2768   30.2522    4.2151 N.am      11 UNK        -0.4279 
     65 CA         35.9888   29.0145    3.8734 C.3       11 UNK         0.1003 
     66 C          36.4034   28.1556    5.1035 C.2       11 UNK         0.5709 
     67 N          37.3944   27.2885    4.9426 N.am      11 UNK        -0.7358 
     68 O          35.8236   28.2399    6.1847 O.2       11 UNK        -0.4999 
     69 C69        35.2153   28.1934    2.8063 C.3       12 UNK        -0.0954 
     70 S70        33.5351   27.6673    3.2997 S.3       12 UNK        -0.2268 
     71 C71        33.8616   25.9624    3.8467 C.3       12 UNK         0.0203 
     72 H72        28.2067   18.7220   -4.5818 H         1 UNK         0.0888 
     73 H73        29.8870   18.3699   -4.1682 H         1 UNK         0.0888 
     74 H74        28.5976   17.9854   -3.0264 H         1 UNK         0.0888 
     75 H75        28.4451   19.4648   -1.3533 H         1 UNK         0.3017 
     76 H76        29.7237   22.0546   -1.4453 H         1 UNK         0.0873 
     77 H77        27.9044   20.8959    0.7358 H         1 UNK         0.0745 
     78 H78        29.6060   20.5572    0.6052 H         1 UNK         0.0745 
     79 H79        30.5204   21.3925    2.7494 H         1 UNK         0.0705 
     80 H80        31.5282   22.1444    1.5296 H         1 UNK         0.0705 
     81 H81        32.9018   23.9851    2.2351 H         1 UNK         0.1334 
     82 H82        31.9841   26.1689    5.8110 H         1 UNK         0.1417 
     83 H83        29.3859   23.0214    4.4789 H         1 UNK         0.1562 
     84 H84        29.9371   25.7740    7.0099 H         1 UNK         0.0748 
     85 H85        29.7930   24.0421    7.1697 H         1 UNK         0.0748 
     86 H86        27.5680   27.0834    6.9982 H         1 UNK         0.0940 
     87 H87        26.4895   26.8180    5.6592 H         1 UNK         0.0940 
     88 H88        29.4309   27.6687    5.5205 H         1 UNK         0.0703 
     89 H89        28.1176   26.2282    3.5029 H         1 UNK         0.3081 
     90 H90        29.1275   27.9774    0.6628 H         1 UNK         0.0719 
     91 H91        30.5660   25.4131    1.4265 H         1 UNK         0.0809 
     92 H92        30.4637   26.1294   -0.1770 H         1 UNK         0.0809 
     93 H93        31.3703   26.9352    1.0939 H         1 UNK         0.0809 
     94 H94        28.1903   25.3533    0.6981 H         1 UNK         0.2990 
     95 H95        25.5457   24.9692    1.4928 H         1 UNK         0.0690 
     96 H96        23.5388   25.6830    0.1659 H         1 UNK         0.0788 
     97 H97        24.3546   27.1890   -0.2546 H         1 UNK         0.0788 
     98 H98        23.9417   26.8456    1.4179 H         1 UNK         0.0788 
     99 H99        26.0518   23.9458   -0.4203 H         1 UNK         0.2993 
    100 H100       25.9352   23.8820   -3.0482 H         1 UNK         0.0949 
    101 H101       27.6160   24.3730   -4.8196 H         1 UNK         0.0767 
    102 H102       26.6165   25.7774   -4.4907 H         1 UNK         0.0767 
    103 H103       28.2578   25.7083   -3.8621 H         1 UNK         0.0767 
    104 H104       28.8101   23.7274   -2.5055 H         1 UNK         0.3013 
    105 H105       26.8096   28.6679    3.3763 H         1 UNK         0.3121 
    106 H106       26.6640   31.3511    4.7095 H         1 UNK         0.0774 
    107 H107       24.5704   29.8843    3.0127 H         1 UNK         0.0815 
    108 H108       24.4108   31.5123    3.6606 H         1 UNK         0.0815 
    109 H109       24.4920   30.1410    4.7551 H         1 UNK         0.0815 
    110 H110       26.8508   29.5655    1.5822 H         1 UNK         0.2987 
    111 H111       26.8644   31.9187   -0.0215 H         1 UNK         0.0949 
    112 H112       27.7345   29.0701   -0.7415 H         1 UNK         0.0806 
    113 H113       26.0935   29.6951   -0.8312 H         1 UNK         0.0806 
    114 H114       27.3444   30.3519   -1.8729 H         1 UNK         0.0806 
    115 H115       29.5017   30.2921    1.6139 H         1 UNK         0.3010 
    116 H116       31.4505   32.1787    0.3378 H         1 UNK         0.0829 
    117 H117       31.9987   29.3286    1.3242 H         1 UNK         0.0813 
    118 H118       32.0028   29.8630   -0.3515 H         1 UNK         0.0813 
    119 H119       33.2083   30.4749    0.7703 H         1 UNK         0.0813 
    120 H120       30.7501   30.2027    3.2394 H         1 UNK         0.3038 
    121 H121       30.7315   30.5095    5.3798 H         1 UNK         0.0769 
    122 H122       30.2328   32.7334    6.3595 H         1 UNK         0.0811 
    123 H123       30.6454   33.5255    4.8454 H         1 UNK         0.0811 
    124 H124       29.2546   32.4445    4.9306 H         1 UNK         0.0811 
    125 H125       33.1493   32.6657    3.9573 H         1 UNK         0.3204 
    126 H126       34.9127   32.6587    6.2842 H         1 UNK         0.0748 
    127 H127       36.4048   33.9626    4.7653 H         1 UNK         0.0771 
    128 H128       35.3544   33.6085    3.3995 H         1 UNK         0.0771 
    129 H129       34.7717   34.6044    4.7330 H         1 UNK         0.0771 
    130 H130       34.3007   30.2805    3.9653 H         1 UNK         0.2980 
    131 H131       36.9225   29.3339    3.4061 H         1 UNK         0.0545 
    132 H132       37.8766   27.2021    4.0616 H         1 UNK         0.3459 
    133 H133       37.6730   26.7151    5.7232 H         1 UNK         0.3459 
    134 H134       35.1074   28.7971    1.9040 H         1 UNK         0.0616 
    135 H135       35.7975   27.3246    2.4954 H         1 UNK         0.0616 
    136 H136       34.3981   25.9834    4.7959 H         1 UNK         0.0634 
    137 H137       34.5213   25.4710    3.1303 H         1 UNK         0.0634 
@<TRIPOS>BOND
     1    1    2 1    
     2    1   72 1    
     3    1   73 1    
     4    1   74 1    
     5    2    3 2    
     6    2    4 am   BACKBONE|DICT|INTERRES
     7    4    5 1    
     8    4   75 1    
     9    5    6 1    
    10    5   35 1    
    11    5   76 1    
    12    6    7 1    
    13    6   77 1    
    14    6   78 1    
    15    7    8 1    
    16    8    9 1    
    17    8   79 1    
    18    8   80 1    
    19    9   10 ar   
    20    9   14 ar   
    21   10   11 ar   
    22   10   81 1    
    23   11   12 ar   
    24   11   71 1    
    25   12   13 ar   
    26   12   82 1    
    27   13   14 ar   
    28   13   15 1    
    29   14   83 1    
    30   15   16 1    
    31   15   84 1    
    32   15   85 1    
    33   16   17 1    
    34   17   18 1    
    35   17   86 1    
    36   17   87 1    
    37   18   19 1    
    38   18   37 1    
    39   18   88 1    
    40   19   20 am   BACKBONE|DICT|INTERRES
    41   19   89 1    
    42   20   21 2    
    43   20   22 1    
    44   22   23 1    
    45   22   24 1    
    46   22   90 1    
    47   23   91 1    
    48   23   92 1    
    49   23   93 1    
    50   24   25 am   BACKBONE|DICT|INTERRES
    51   24   94 1    
    52   25   26 2    
    53   25   27 1    
    54   27   28 1    
    55   27   29 1    
    56   27   95 1    
    57   28   96 1    
    58   28   97 1    
    59   28   98 1    
    60   29   30 am   BACKBONE|DICT|INTERRES
    61   29   99 1    
    62   30   31 2    
    63   30   32 1    
    64   32   33 1    
    65   32   34 1    
    66   32  100 1    
    67   33  101 1    
    68   33  102 1    
    69   33  103 1    
    70   34   35 am   BACKBONE|DICT|INTERRES
    71   34  104 1    
    72   35   36 2    
    73   37   38 2    
    74   37   39 am   BACKBONE|DICT|INTERRES
    75   39   40 1    
    76   39  105 1    
    77   40   41 1    
    78   40   42 1    
    79   40  106 1    
    80   41  107 1    
    81   41  108 1    
    82   41  109 1    
    83   42   43 2    
    84   42   44 am   BACKBONE|DICT|INTERRES
    85   44   45 1    
    86   44  110 1    
    87   45   46 1    
    88   45   47 1    
    89   45  111 1    
    90   46  112 1    
    91   46  113 1    
    92   46  114 1    
    93   47   48 2    
    94   47   49 am   BACKBONE|DICT|INTERRES
    95   49   50 1    
    96   49  115 1    
    97   50   51 1    
    98   50   52 1    
    99   50  116 1    
   100   51  117 1    
   101   51  118 1    
   102   51  119 1    
   103   52   53 2    
   104   52   54 am   BACKBONE|DICT|INTERRES
   105   54   55 1    
   106   54  120 1    
   107   55   56 1    
   108   55   57 1    
   109   55  121 1    
   110   56  122 1    
   111   56  123 1    
   112   56  124 1    
   113   57   58 2    
   114   57   59 am   BACKBONE|DICT|INTERRES
   115   59   60 1    
   116   59  125 1    
   117   60   61 1    
   118   60   62 1    
   119   60  126 1    
   120   61  127 1    
   121   61  128 1    
   122   61  129 1    
   123   62   63 2    
   124   62   64 am   BACKBONE|DICT|INTERRES
   125   64   65 1    
   126   64  130 1    
   127   65   66 1    
   128   65   69 1    
   129   65  131 1    
   130   66   67 am   BACKBONE|DICT|INTERRES
   131   66   68 2    
   132   67  132 1    
   133   67  133 1    
   134   69   70 1    
   135   69  134 1    
   136   69  135 1    
   137   70   71 1    
   138   71  136 1    
   139   71  137 1    
@<TRIPOS>SUBSTRUCTURE
     1 UNK         1 GROUP             0       ****    0 ROOT    
