@<TRIPOS>MOLECULE
3R136
137   139    1
SMALL
USER_CHARGES


@<TRIPOS>ATOM
      1 CA         27.6466   23.2398    6.4785 C.3       0 UNK        -0.1979 
      2 C          27.9791   23.9120    5.1557 C.2       0 UNK         0.4864 
      3 O          27.8098   25.1262    5.0326 O.2       0 UNK        -0.5359 
      4 N          28.4326   23.1309    4.1629 N.am      1 UNK        -0.4318 
      5 CA         28.9075   23.5297    2.8230 C.3       1 UNK         0.0824 
      6 C6         30.1344   24.4731    2.8632 C.3       12 UNK        -0.0944 
      7 S7         31.5909   23.7278    3.6665 S.3       12 UNK        -0.2672 
      8 C8         32.5348   23.0981    2.2412 C.3       12 UNK         0.0333 
      9 C9         32.9505   24.1895    1.2607 C.ar      12 UNK        -0.0807 
     10 C10        33.7200   25.2773    1.6865 C.ar      12 UNK        -0.0894 
     11 C11        34.1236   26.2611    0.7785 C.ar      12 UNK        -0.0804 
     12 C12        33.7636   26.1441   -0.5684 C.ar      12 UNK        -0.0824 
     13 C13        33.0023   25.0557   -1.0097 C.ar      12 UNK        -0.0762 
     14 C14        32.5910   24.0889   -0.0871 C.ar      12 UNK        -0.0782 
     15 C15        32.6819   24.8774   -2.4904 C.3       12 UNK         0.0230 
     16 S16        31.8010   26.2926   -3.2206 S.3       12 UNK        -0.2608 
     17 C17        30.1472   26.1441   -2.4643 C.3       12 UNK        -0.0989 
     18 CA         29.3847   27.4949   -2.4844 C.3       5 UNK         0.0716 
     19 N          27.9342   27.3105   -2.4225 N.am      5 UNK        -0.4135 
     20 C          27.1376   27.2762   -3.5028 C.2       4 UNK         0.5031 
     21 O          27.5510   27.3609   -4.6607 O.2       4 UNK        -0.5229 
     22 CA         25.6192   27.1203   -3.2832 C.3       4 UNK         0.0329 
     23 CB         25.1802   25.6767   -3.5802 C.3       4 UNK        -0.2001 
     24 N          25.1758   27.4807   -1.9378 N.am      4 UNK        -0.4303 
     25 C          25.2543   28.7014   -1.3912 C.2       3 UNK         0.5044 
     26 O          25.5930   29.7089   -2.0130 O.2       3 UNK        -0.5152 
     27 CA         24.9300   28.8151    0.1093 C.3       3 UNK         0.0319 
     28 CB         23.5652   29.4939    0.3104 C.3       3 UNK        -0.2001 
     29 N          24.9427   27.5455    0.8511 N.am      3 UNK        -0.4354 
     30 C          25.9690   26.6887    0.9766 C.2       2 UNK         0.4964 
     31 O          27.0581   26.8222    0.4094 O.2       2 UNK        -0.5047 
     32 CA         25.6639   25.4553    1.8429 C.3       2 UNK         0.0288 
     33 CB         24.8128   24.4272    1.0676 C.3       2 UNK        -0.2113 
     34 N          26.8490   24.8341    2.4429 N.am      2 UNK        -0.4145 
     35 C          27.8125   24.0906    1.8823 C.2       1 UNK         0.5006 
     36 O          27.8589   23.8020    0.6852 O.2       1 UNK        -0.5103 
     37 C          29.9003   28.4609   -1.4021 C.2       5 UNK         0.5055 
     38 O          30.7380   29.3085   -1.7186 O.2       5 UNK        -0.5220 
     39 N          29.4353   28.3175   -0.1543 N.am      6 UNK        -0.4450 
     40 CA         30.0533   28.9472    1.0115 C.3       6 UNK         0.0367 
     41 CB         30.5715   27.8279    1.9212 C.3       6 UNK        -0.1929 
     42 C          29.0500   29.7876    1.8006 C.2       6 UNK         0.5070 
     43 O          27.8675   29.4516    1.8624 O.2       6 UNK        -0.5237 
     44 N          29.5630   30.8053    2.4995 N.am      7 UNK        -0.4739 
     45 CA         28.8319   31.5633    3.5150 C.3       7 UNK         0.0276 
     46 CB         29.4970   32.9420    3.6838 C.3       7 UNK        -0.1927 
     47 C          28.7863   30.7653    4.8315 C.2       7 UNK         0.5013 
     48 O          29.5002   31.1026    5.7755 O.2       7 UNK        -0.5193 
     49 N          27.9988   29.6790    4.8433 N.am      8 UNK        -0.4253 
     50 CA         27.7931   28.7444    5.9617 C.3       8 UNK         0.0242 
     51 CB         26.9446   29.4120    7.0647 C.3       8 UNK        -0.2000 
     52 C          29.1084   28.1429    6.5026 C.2       8 UNK         0.4948 
     53 O          29.3196   28.1004    7.7160 O.2       8 UNK        -0.5275 
     54 N          29.9779   27.7232    5.5717 N.am      9 UNK        -0.4246 
     55 CA         31.3037   27.1250    5.7798 C.3       9 UNK         0.0261 
     56 CB         31.2058   25.8206    6.6001 C.3       9 UNK        -0.1959 
     57 C          32.3732   28.0784    6.3522 C.2       9 UNK         0.5033 
     58 O          33.4524   27.6014    6.7089 O.2       9 UNK        -0.5390 
     59 N          32.1131   29.3970    6.3983 N.am      10 UNK        -0.4215 
     60 CA         33.0515   30.4106    6.9088 C.3       10 UNK         0.0240 
     61 CB         32.3658   31.7854    6.9468 C.3       10 UNK        -0.1982 
     62 C          34.3835   30.5016    6.1377 C.2       10 UNK         0.4970 
     63 O          35.3843   30.9254    6.7175 O.2       10 UNK        -0.4916 
     64 N          34.3789   30.0887    4.8642 N.am      11 UNK        -0.4279 
     65 CA         35.5747   29.9120    4.0283 C.3       11 UNK         0.1003 
     66 C          36.4648   28.6890    4.4062 C.2       11 UNK         0.5709 
     67 N          36.0396   27.7868    5.2844 N.am      11 UNK        -0.7358 
     68 O          37.5755   28.5638    3.8958 O.2       11 UNK        -0.4999 
     69 C69        35.2203   29.9379    2.5163 C.3       12 UNK        -0.0954 
     70 S70        33.9507   28.7185    2.0298 S.3       12 UNK        -0.2268 
     71 C71        34.9723   27.4319    1.2516 C.3       12 UNK         0.0203 
     72 H72        26.5932   23.3826    6.7174 H         1 UNK         0.0888 
     73 H73        27.8488   22.1693    6.4553 H         1 UNK         0.0888 
     74 H74        28.2406   23.6801    7.2789 H         1 UNK         0.0888 
     75 H75        28.5065   22.1391    4.3421 H         1 UNK         0.3017 
     76 H76        29.2353   22.6004    2.3536 H         1 UNK         0.0873 
     77 H77        29.8916   25.3716    3.4279 H         1 UNK         0.0745 
     78 H78        30.4044   24.8050    1.8595 H         1 UNK         0.0745 
     79 H79        31.9399   22.3311    1.7431 H         1 UNK         0.0705 
     80 H80        33.4314   22.5983    2.6100 H         1 UNK         0.0705 
     81 H81        34.0035   25.3592    2.7272 H         1 UNK         0.1334 
     82 H82        34.0866   26.8929   -1.2789 H         1 UNK         0.1417 
     83 H83        32.0107   23.2405   -0.4243 H         1 UNK         0.1562 
     84 H84        32.0957   23.9729   -2.6611 H         1 UNK         0.0748 
     85 H85        33.6192   24.7380   -3.0308 H         1 UNK         0.0748 
     86 H86        30.2243   25.7478   -1.4495 H         1 UNK         0.0940 
     87 H87        29.6002   25.3939   -3.0377 H         1 UNK         0.0940 
     88 H88        29.6125   27.9901   -3.4315 H         1 UNK         0.0703 
     89 H89        27.5211   27.2171   -1.5000 H         1 UNK         0.3081 
     90 H90        25.1179   27.7860   -3.9890 H         1 UNK         0.0719 
     91 H91        25.4648   25.3821   -4.5915 H         1 UNK         0.0809 
     92 H92        25.6398   24.9654   -2.8924 H         1 UNK         0.0809 
     93 H93        24.0981   25.5664   -3.5062 H         1 UNK         0.0809 
     94 H94        24.8794   26.7218   -1.3421 H         1 UNK         0.2990 
     95 H95        25.6930   29.4590    0.5467 H         1 UNK         0.0690 
     96 H96        23.5270   30.4564   -0.2023 H         1 UNK         0.0788 
     97 H97        23.3685   29.6861    1.3655 H         1 UNK         0.0788 
     98 H98        22.7493   28.8842   -0.0801 H         1 UNK         0.0788 
     99 H99        24.0856   27.3246    1.3379 H         1 UNK         0.2993 
    100 H100       25.0735   25.8015    2.6933 H         1 UNK         0.0949 
    101 H101       24.6055   23.5458    1.6748 H         1 UNK         0.0767 
    102 H102       23.8505   24.8507    0.7776 H         1 UNK         0.0767 
    103 H103       25.3058   24.0956    0.1529 H         1 UNK         0.0767 
    104 H104       26.9916   25.0401    3.4310 H         1 UNK         0.3013 
    105 H105       28.6562   27.6946    0.0512 H         1 UNK         0.3121 
    106 H106       30.8944   29.5819    0.7242 H         1 UNK         0.0774 
    107 H107       29.7419   27.2196    2.2768 H         1 UNK         0.0815 
    108 H108       31.2720   27.1771    1.3971 H         1 UNK         0.0815 
    109 H109       31.0891   28.2318    2.7910 H         1 UNK         0.0815 
    110 H110       30.5517   30.9980    2.4239 H         1 UNK         0.2987 
    111 H111       27.8033   31.7245    3.1838 H         1 UNK         0.0949 
    112 H112       28.9839   33.5312    4.4451 H         1 UNK         0.0806 
    113 H113       30.5409   32.8572    3.9872 H         1 UNK         0.0806 
    114 H114       29.4633   33.5133    2.7561 H         1 UNK         0.0806 
    115 H115       27.5204   29.4532    3.9768 H         1 UNK         0.3010 
    116 H116       27.2190   27.9054    5.5648 H         1 UNK         0.0829 
    117 H117       27.4725   30.2447    7.5308 H         1 UNK         0.0813 
    118 H118       26.0037   29.7915    6.6668 H         1 UNK         0.0813 
    119 H119       26.6982   28.7000    7.8532 H         1 UNK         0.0813 
    120 H120       29.6868   27.8101    4.6096 H         1 UNK         0.3038 
    121 H121       31.6616   26.8492    4.7869 H         1 UNK         0.0769 
    122 H122       30.9540   26.0120    7.6433 H         1 UNK         0.0811 
    123 H123       32.1530   25.2802    6.5897 H         1 UNK         0.0811 
    124 H124       30.4525   25.1500    6.1901 H         1 UNK         0.0811 
    125 H125       31.1940   29.7290    6.1272 H         1 UNK         0.3204 
    126 H126       33.2986   30.1301    7.9350 H         1 UNK         0.0748 
    127 H127       33.0326   32.5462    7.3552 H         1 UNK         0.0771 
    128 H128       32.0675   32.1143    5.9505 H         1 UNK         0.0771 
    129 H129       31.4755   31.7674    7.5761 H         1 UNK         0.0771 
    130 H130       33.5169   29.7484    4.4670 H         1 UNK         0.2980 
    131 H131       36.2101   30.7817    4.2065 H         1 UNK         0.0545 
    132 H132       36.6394   27.0113    5.5141 H         1 UNK         0.3459 
    133 H133       35.1292   27.8625    5.7274 H         1 UNK         0.3459 
    134 H134       36.1136   29.8113    1.9017 H         1 UNK         0.0616 
    135 H135       34.8323   30.9245    2.2585 H         1 UNK         0.0616 
    136 H136       35.5224   27.8660    0.4154 H         1 UNK         0.0634 
    137 H137       35.7185   27.0779    1.9639 H         1 UNK         0.0634 
@<TRIPOS>BOND
     1    1    2 1    
     2    1   72 1    
     3    1   73 1    
     4    1   74 1    
     5    2    3 2    
     6    2    4 am   BACKBONE|DICT|INTERRES
     7    4    5 1    
     8    4   75 1    
     9    5    6 1    
    10    5   35 1    
    11    5   76 1    
    12    6    7 1    
    13    6   77 1    
    14    6   78 1    
    15    7    8 1    
    16    8    9 1    
    17    8   79 1    
    18    8   80 1    
    19    9   10 ar   
    20    9   14 ar   
    21   10   11 ar   
    22   10   81 1    
    23   11   12 ar   
    24   11   71 1    
    25   12   13 ar   
    26   12   82 1    
    27   13   14 ar   
    28   13   15 1    
    29   14   83 1    
    30   15   16 1    
    31   15   84 1    
    32   15   85 1    
    33   16   17 1    
    34   17   18 1    
    35   17   86 1    
    36   17   87 1    
    37   18   19 1    
    38   18   37 1    
    39   18   88 1    
    40   19   20 am   BACKBONE|DICT|INTERRES
    41   19   89 1    
    42   20   21 2    
    43   20   22 1    
    44   22   23 1    
    45   22   24 1    
    46   22   90 1    
    47   23   91 1    
    48   23   92 1    
    49   23   93 1    
    50   24   25 am   BACKBONE|DICT|INTERRES
    51   24   94 1    
    52   25   26 2    
    53   25   27 1    
    54   27   28 1    
    55   27   29 1    
    56   27   95 1    
    57   28   96 1    
    58   28   97 1    
    59   28   98 1    
    60   29   30 am   BACKBONE|DICT|INTERRES
    61   29   99 1    
    62   30   31 2    
    63   30   32 1    
    64   32   33 1    
    65   32   34 1    
    66   32  100 1    
    67   33  101 1    
    68   33  102 1    
    69   33  103 1    
    70   34   35 am   BACKBONE|DICT|INTERRES
    71   34  104 1    
    72   35   36 2    
    73   37   38 2    
    74   37   39 am   BACKBONE|DICT|INTERRES
    75   39   40 1    
    76   39  105 1    
    77   40   41 1    
    78   40   42 1    
    79   40  106 1    
    80   41  107 1    
    81   41  108 1    
    82   41  109 1    
    83   42   43 2    
    84   42   44 am   BACKBONE|DICT|INTERRES
    85   44   45 1    
    86   44  110 1    
    87   45   46 1    
    88   45   47 1    
    89   45  111 1    
    90   46  112 1    
    91   46  113 1    
    92   46  114 1    
    93   47   48 2    
    94   47   49 am   BACKBONE|DICT|INTERRES
    95   49   50 1    
    96   49  115 1    
    97   50   51 1    
    98   50   52 1    
    99   50  116 1    
   100   51  117 1    
   101   51  118 1    
   102   51  119 1    
   103   52   53 2    
   104   52   54 am   BACKBONE|DICT|INTERRES
   105   54   55 1    
   106   54  120 1    
   107   55   56 1    
   108   55   57 1    
   109   55  121 1    
   110   56  122 1    
   111   56  123 1    
   112   56  124 1    
   113   57   58 2    
   114   57   59 am   BACKBONE|DICT|INTERRES
   115   59   60 1    
   116   59  125 1    
   117   60   61 1    
   118   60   62 1    
   119   60  126 1    
   120   61  127 1    
   121   61  128 1    
   122   61  129 1    
   123   62   63 2    
   124   62   64 am   BACKBONE|DICT|INTERRES
   125   64   65 1    
   126   64  130 1    
   127   65   66 1    
   128   65   69 1    
   129   65  131 1    
   130   66   67 am   BACKBONE|DICT|INTERRES
   131   66   68 2    
   132   67  132 1    
   133   67  133 1    
   134   69   70 1    
   135   69  134 1    
   136   69  135 1    
   137   70   71 1    
   138   71  136 1    
   139   71  137 1    
@<TRIPOS>SUBSTRUCTURE
     1 UNK         1 GROUP             0       ****    0 ROOT    
