@<TRIPOS>MOLECULE
3R136
137   139    1
SMALL
USER_CHARGES


@<TRIPOS>ATOM
      1 CA         30.8735   18.7872   -0.6483 C.3       0 UNK        -0.1979 
      2 C          30.9303   19.9357   -1.6447 C.2       0 UNK         0.4864 
      3 O          31.7980   19.9447   -2.5191 O.2       0 UNK        -0.5359 
      4 N          30.0133   20.8996   -1.5185 N.am      1 UNK        -0.4318 
      5 CA         29.8726   22.0683   -2.3858 C.3       1 UNK         0.0824 
      6 C6         30.9952   23.1308   -2.1758 C.3       12 UNK        -0.0944 
      7 S7         30.8765   24.1089   -0.6385 S.3       12 UNK        -0.2672 
      8 C8         31.8715   23.1223    0.5178 C.3       12 UNK         0.0333 
      9 C9         31.7527   23.6904    1.9219 C.ar      12 UNK        -0.0807 
     10 C10        32.7326   24.5520    2.4231 C.ar      12 UNK        -0.0894 
     11 C11        32.6014   25.1214    3.6946 C.ar      12 UNK        -0.0804 
     12 C12        31.4881   24.7889    4.4736 C.ar      12 UNK        -0.0824 
     13 C13        30.4939   23.9414    3.9787 C.ar      12 UNK        -0.0762 
     14 C14        30.6349   23.3878    2.7043 C.ar      12 UNK        -0.0782 
     15 C15        29.2514   23.6519    4.8074 C.3       12 UNK         0.0230 
     16 S16        27.8940   24.8000    4.4018 S.3       12 UNK        -0.2608 
     17 C17        28.5159   26.3800    5.0757 C.3       12 UNK        -0.0989 
     18 CA         29.0073   27.3436    3.9650 C.3       5 UNK         0.0716 
     19 N          27.9253   27.7027    3.0406 N.am      5 UNK        -0.4135 
     20 C          27.9725   28.5654    2.0142 C.2       4 UNK         0.5031 
     21 O          28.9427   29.2789    1.7425 O.2       4 UNK        -0.5229 
     22 CA         26.7059   28.6271    1.1461 C.3       4 UNK         0.0329 
     23 CB         26.9139   29.3742   -0.1840 C.3       4 UNK        -0.2001 
     24 N          26.2327   27.2724    0.8707 N.am      4 UNK        -0.4303 
     25 C          24.9594   26.8695    0.8360 C.2       3 UNK         0.5044 
     26 O          24.0010   27.6149    1.0475 O.2       3 UNK        -0.5152 
     27 CA         24.7292   25.3820    0.4914 C.3       3 UNK         0.0319 
     28 CB         23.2426   24.9827    0.5517 C.3       3 UNK        -0.2001 
     29 N          25.2622   25.0230   -0.8282 N.am      3 UNK        -0.4354 
     30 C          26.5584   24.8582   -1.1238 C.2       2 UNK         0.4964 
     31 O          27.4665   25.0141   -0.3039 O.2       2 UNK        -0.5047 
     32 CA         26.8898   24.5188   -2.5892 C.3       2 UNK         0.0288 
     33 CB         26.9334   25.8030   -3.4347 C.3       2 UNK        -0.2113 
     34 N          28.1728   23.8225   -2.7227 N.am      2 UNK        -0.4145 
     35 C          28.4241   22.5903   -2.2592 C.2       1 UNK         0.5006 
     36 O          27.5590   21.8663   -1.7539 O.2       1 UNK        -0.5103 
     37 C          29.7175   28.5640    4.5800 C.2       5 UNK         0.5055 
     38 O          30.9392   28.6676    4.4815 O.2       5 UNK        -0.5220 
     39 N          28.9415   29.4749    5.1784 N.am      6 UNK        -0.4450 
     40 CA         29.4460   30.7426    5.7119 C.3       6 UNK         0.0367 
     41 CB         28.7035   31.0728    7.0166 C.3       6 UNK        -0.1929 
     42 C          29.2902   31.8947    4.7064 C.2       6 UNK         0.5070 
     43 O          30.0696   32.8451    4.7579 O.2       6 UNK        -0.5237 
     44 N          28.2775   31.8081    3.8319 N.am      7 UNK        -0.4739 
     45 CA         27.8683   32.8824    2.9247 C.3       7 UNK         0.0276 
     46 CB         26.4506   32.5975    2.4029 C.3       7 UNK        -0.1927 
     47 C          28.8359   33.1308    1.7569 C.2       7 UNK         0.5013 
     48 O          29.0035   34.2878    1.3680 O.2       7 UNK        -0.5193 
     49 N          29.4363   32.0636    1.2132 N.am      8 UNK        -0.4253 
     50 CA         30.3579   32.1352    0.0757 C.3       8 UNK         0.0242 
     51 CB         29.6739   31.6006   -1.1936 C.3       8 UNK        -0.2000 
     52 C          31.6582   31.3738    0.3468 C.2       8 UNK         0.4948 
     53 O          32.7275   31.8897    0.0197 O.2       8 UNK        -0.5275 
     54 N          31.5621   30.1710    0.9331 N.am      9 UNK        -0.4246 
     55 CA         32.7215   29.3178    1.2170 C.3       9 UNK         0.0261 
     56 CB         32.2636   27.8572    1.3192 C.3       9 UNK        -0.1959 
     57 C          33.5295   29.7625    2.4541 C.2       9 UNK         0.5033 
     58 O          34.6809   29.3482    2.5946 O.2       9 UNK        -0.5390 
     59 N          32.9309   30.6196    3.2944 N.am      10 UNK        -0.4215 
     60 CA         33.5207   31.3295    4.4351 C.3       10 UNK         0.0240 
     61 CB         34.5777   32.3438    3.9469 C.3       10 UNK        -0.1982 
     62 C          34.0385   30.4266    5.5742 C.2       10 UNK         0.4970 
     63 O          35.0033   30.7959    6.2474 O.2       10 UNK        -0.4916 
     64 N          33.3768   29.2869    5.8074 N.am      11 UNK        -0.4279 
     65 CA         33.5712   28.4585    7.0077 C.3       11 UNK         0.1003 
     66 C          32.9386   29.1239    8.2617 C.2       11 UNK         0.5709 
     67 N          33.4964   28.8774    9.4393 N.am      11 UNK        -0.7358 
     68 O          31.9328   29.8273    8.1856 O.2       11 UNK        -0.4999 
     69 C69        33.0182   27.0240    6.8037 C.3       12 UNK        -0.0954 
     70 S70        34.1773   25.9522    5.8858 S.3       12 UNK        -0.2268 
     71 C71        33.6245   26.1547    4.1630 C.3       12 UNK         0.0203 
     72 H72        31.8094   18.7258   -0.0934 H         1 UNK         0.0888 
     73 H73        30.0621   18.9099    0.0691 H         1 UNK         0.0888 
     74 H74        30.7240   17.8431   -1.1715 H         1 UNK         0.0888 
     75 H75        29.2698   20.8162   -0.8361 H         1 UNK         0.3017 
     76 H76        29.9536   21.7090   -3.4140 H         1 UNK         0.0873 
     77 H77        31.9778   22.6589   -2.2187 H         1 UNK         0.0745 
     78 H78        30.9907   23.8350   -3.0089 H         1 UNK         0.0745 
     79 H79        32.9118   23.1125    0.1890 H         1 UNK         0.0705 
     80 H80        31.5314   22.0866    0.5127 H         1 UNK         0.0705 
     81 H81        33.5817   24.8070    1.8038 H         1 UNK         0.1334 
     82 H82        31.3714   25.2102    5.4582 H         1 UNK         0.1417 
     83 H83        29.8602   22.7452    2.3080 H         1 UNK         0.1562 
     84 H84        29.4761   23.7069    5.8738 H         1 UNK         0.0748 
     85 H85        28.9153   22.6306    4.6216 H         1 UNK         0.0748 
     86 H86        29.3057   26.1773    5.8003 H         1 UNK         0.0940 
     87 H87        27.7080   26.8379    5.6495 H         1 UNK         0.0940 
     88 H88        29.7532   26.8165    3.3677 H         1 UNK         0.0703 
     89 H89        27.0790   27.1629    3.1503 H         1 UNK         0.3081 
     90 H90        25.9577   29.1656    1.7310 H         1 UNK         0.0719 
     91 H91        27.6675   28.8852   -0.8022 H         1 UNK         0.0809 
     92 H92        25.9896   29.4205   -0.7598 H         1 UNK         0.0809 
     93 H93        27.2372   30.4010   -0.0153 H         1 UNK         0.0809 
     94 H94        26.9447   26.5790    0.6464 H         1 UNK         0.2990 
     95 H95        25.2572   24.7956    1.2469 H         1 UNK         0.0690 
     96 H96        22.6479   25.5237   -0.1856 H         1 UNK         0.0788 
     97 H97        22.8194   25.1978    1.5339 H         1 UNK         0.0788 
     98 H98        23.1106   23.9155    0.3725 H         1 UNK         0.0788 
     99 H99        24.5823   24.9250   -1.5688 H         1 UNK         0.2993 
    100 H100       26.1075   23.8631   -2.9781 H         1 UNK         0.0949 
    101 H101       27.7045   26.4903   -3.0832 H         1 UNK         0.0767 
    102 H102       27.1327   25.5819   -4.4836 H         1 UNK         0.0767 
    103 H103       25.9816   26.3346   -3.3936 H         1 UNK         0.0767 
    104 H104       28.9452   24.3700   -3.0718 H         1 UNK         0.3013 
    105 H105       27.9485   29.3049    5.2453 H         1 UNK         0.3121 
    106 H106       30.5084   30.6555    5.9497 H         1 UNK         0.0774 
    107 H107       29.0687   32.0070    7.4456 H         1 UNK         0.0815 
    108 H108       27.6298   31.1825    6.8598 H         1 UNK         0.0815 
    109 H109       28.8588   30.2949    7.7645 H         1 UNK         0.0815 
    110 H110       27.7000   30.9828    3.8451 H         1 UNK         0.2987 
    111 H111       27.8282   33.8072    3.5054 H         1 UNK         0.0949 
    112 H112       26.4016   31.6620    1.8473 H         1 UNK         0.0806 
    113 H113       25.7309   32.5413    3.2198 H         1 UNK         0.0806 
    114 H114       26.1146   33.3909    1.7334 H         1 UNK         0.0806 
    115 H115       29.2328   31.1395    1.5847 H         1 UNK         0.3010 
    116 H116       30.6414   33.1731   -0.1125 H         1 UNK         0.0829 
    117 H117       30.3211   31.7224   -2.0631 H         1 UNK         0.0813 
    118 H118       29.4417   30.5390   -1.1106 H         1 UNK         0.0813 
    119 H119       28.7470   32.1352   -1.4019 H         1 UNK         0.0813 
    120 H120       30.6463   29.7937    1.1682 H         1 UNK         0.3038 
    121 H121       33.4016   29.3796    0.3644 H         1 UNK         0.0769 
    122 H122       33.1226   27.1991    1.4432 H         1 UNK         0.0811 
    123 H123       31.7419   27.5366    0.4173 H         1 UNK         0.0811 
    124 H124       31.5963   27.6961    2.1633 H         1 UNK         0.0811 
    125 H125       31.9632   30.8342    3.1028 H         1 UNK         0.3204 
    126 H126       32.7048   31.9045    4.8746 H         1 UNK         0.0748 
    127 H127       34.9116   32.9885    4.7609 H         1 UNK         0.0771 
    128 H128       35.4593   31.8442    3.5438 H         1 UNK         0.0771 
    129 H129       34.1747   32.9920    3.1685 H         1 UNK         0.0771 
    130 H130       32.5586   29.0684    5.2423 H         1 UNK         0.2980 
    131 H131       34.6447   28.3868    7.1948 H         1 UNK         0.0545 
    132 H132       33.0932   29.2888   10.2664 H         1 UNK         0.3459 
    133 H133       34.3139   28.2926    9.5178 H         1 UNK         0.3459 
    134 H134       32.8518   26.5289    7.7624 H         1 UNK         0.0616 
    135 H135       32.0448   27.0613    6.3168 H         1 UNK         0.0616 
    136 H136       34.5117   26.1164    3.5294 H         1 UNK         0.0634 
    137 H137       33.2051   27.1510    4.0319 H         1 UNK         0.0634 
@<TRIPOS>BOND
     1    1    2 1    
     2    1   72 1    
     3    1   73 1    
     4    1   74 1    
     5    2    3 2    
     6    2    4 am   BACKBONE|DICT|INTERRES
     7    4    5 1    
     8    4   75 1    
     9    5    6 1    
    10    5   35 1    
    11    5   76 1    
    12    6    7 1    
    13    6   77 1    
    14    6   78 1    
    15    7    8 1    
    16    8    9 1    
    17    8   79 1    
    18    8   80 1    
    19    9   10 ar   
    20    9   14 ar   
    21   10   11 ar   
    22   10   81 1    
    23   11   12 ar   
    24   11   71 1    
    25   12   13 ar   
    26   12   82 1    
    27   13   14 ar   
    28   13   15 1    
    29   14   83 1    
    30   15   16 1    
    31   15   84 1    
    32   15   85 1    
    33   16   17 1    
    34   17   18 1    
    35   17   86 1    
    36   17   87 1    
    37   18   19 1    
    38   18   37 1    
    39   18   88 1    
    40   19   20 am   BACKBONE|DICT|INTERRES
    41   19   89 1    
    42   20   21 2    
    43   20   22 1    
    44   22   23 1    
    45   22   24 1    
    46   22   90 1    
    47   23   91 1    
    48   23   92 1    
    49   23   93 1    
    50   24   25 am   BACKBONE|DICT|INTERRES
    51   24   94 1    
    52   25   26 2    
    53   25   27 1    
    54   27   28 1    
    55   27   29 1    
    56   27   95 1    
    57   28   96 1    
    58   28   97 1    
    59   28   98 1    
    60   29   30 am   BACKBONE|DICT|INTERRES
    61   29   99 1    
    62   30   31 2    
    63   30   32 1    
    64   32   33 1    
    65   32   34 1    
    66   32  100 1    
    67   33  101 1    
    68   33  102 1    
    69   33  103 1    
    70   34   35 am   BACKBONE|DICT|INTERRES
    71   34  104 1    
    72   35   36 2    
    73   37   38 2    
    74   37   39 am   BACKBONE|DICT|INTERRES
    75   39   40 1    
    76   39  105 1    
    77   40   41 1    
    78   40   42 1    
    79   40  106 1    
    80   41  107 1    
    81   41  108 1    
    82   41  109 1    
    83   42   43 2    
    84   42   44 am   BACKBONE|DICT|INTERRES
    85   44   45 1    
    86   44  110 1    
    87   45   46 1    
    88   45   47 1    
    89   45  111 1    
    90   46  112 1    
    91   46  113 1    
    92   46  114 1    
    93   47   48 2    
    94   47   49 am   BACKBONE|DICT|INTERRES
    95   49   50 1    
    96   49  115 1    
    97   50   51 1    
    98   50   52 1    
    99   50  116 1    
   100   51  117 1    
   101   51  118 1    
   102   51  119 1    
   103   52   53 2    
   104   52   54 am   BACKBONE|DICT|INTERRES
   105   54   55 1    
   106   54  120 1    
   107   55   56 1    
   108   55   57 1    
   109   55  121 1    
   110   56  122 1    
   111   56  123 1    
   112   56  124 1    
   113   57   58 2    
   114   57   59 am   BACKBONE|DICT|INTERRES
   115   59   60 1    
   116   59  125 1    
   117   60   61 1    
   118   60   62 1    
   119   60  126 1    
   120   61  127 1    
   121   61  128 1    
   122   61  129 1    
   123   62   63 2    
   124   62   64 am   BACKBONE|DICT|INTERRES
   125   64   65 1    
   126   64  130 1    
   127   65   66 1    
   128   65   69 1    
   129   65  131 1    
   130   66   67 am   BACKBONE|DICT|INTERRES
   131   66   68 2    
   132   67  132 1    
   133   67  133 1    
   134   69   70 1    
   135   69  134 1    
   136   69  135 1    
   137   70   71 1    
   138   71  136 1    
   139   71  137 1    
@<TRIPOS>SUBSTRUCTURE
     1 UNK         1 GROUP             0       ****    0 ROOT    
