@<TRIPOS>MOLECULE
3R136
137   139    1
SMALL
USER_CHARGES


@<TRIPOS>ATOM
      1 CA         27.9959   21.4329    0.4083 C.3       0 UNK        -0.1979 
      2 C          28.8842   22.2034   -0.5557 C.2       0 UNK         0.4864 
      3 O          28.7653   22.0326   -1.7697 O.2       0 UNK        -0.5359 
      4 N          29.7751   23.0518   -0.0238 N.am      1 UNK        -0.4318 
      5 CA         30.7222   23.8729   -0.7972 C.3       1 UNK         0.0824 
      6 C6         31.9107   24.3611    0.0671 C.3       12 UNK        -0.0944 
      7 S7         32.7618   22.9640    0.8811 S.3       12 UNK        -0.2672 
      8 C8         33.2699   23.6759    2.4804 C.3       12 UNK         0.0333 
      9 C9         32.1222   24.2585    3.3004 C.ar      12 UNK        -0.0807 
     10 C10        32.2638   25.5302    3.8606 C.ar      12 UNK        -0.0894 
     11 C11        31.2511   26.0815    4.6471 C.ar      12 UNK        -0.0804 
     12 C12        30.0814   25.3515    4.8722 C.ar      12 UNK        -0.0824 
     13 C13        29.9214   24.0753    4.3207 C.ar      12 UNK        -0.0762 
     14 C14        30.9485   23.5323    3.5390 C.ar      12 UNK        -0.0782 
     15 C15        28.6703   23.2575    4.6212 C.3       12 UNK         0.0230 
     16 S16        27.3478   23.4993    3.3891 S.3       12 UNK        -0.2608 
     17 C17        26.6560   25.1182    3.8705 C.3       12 UNK        -0.0989 
     18 CA         26.6547   26.1071    2.6679 C.3       5 UNK         0.0716 
     19 N          25.4246   26.0345    1.8613 N.am      5 UNK        -0.4135 
     20 C          24.1906   26.4113    2.2378 C.2       4 UNK         0.5031 
     21 O          23.9275   26.8292    3.3660 O.2       4 UNK        -0.5229 
     22 CA         23.0720   26.3651    1.1777 C.3       4 UNK         0.0329 
     23 CB         22.1262   27.5756    1.2937 C.3       4 UNK        -0.2001 
     24 N          23.6138   26.3215   -0.1837 N.am      4 UNK        -0.4303 
     25 C          23.3808   25.3531   -1.0778 C.2       3 UNK         0.5044 
     26 O          22.6111   24.4101   -0.8897 O.2       3 UNK        -0.5152 
     27 CA         24.1573   25.4338   -2.4077 C.3       3 UNK         0.0319 
     28 CB         23.3300   26.1881   -3.4613 C.3       3 UNK        -0.2001 
     29 N          25.5023   26.0288   -2.3320 N.am      3 UNK        -0.4354 
     30 C          26.4840   25.6386   -1.5072 C.2       2 UNK         0.4964 
     31 O          26.3304   24.8248   -0.5909 O.2       2 UNK        -0.5047 
     32 CA         27.8619   26.2825   -1.7071 C.3       2 UNK         0.0288 
     33 CB         27.9314   27.6790   -1.0689 C.3       2 UNK        -0.2113 
     34 N          28.8244   25.4024   -1.0599 N.am      2 UNK        -0.4145 
     35 C          30.0323   25.0556   -1.5139 C.2       1 UNK         0.5006 
     36 O          30.5904   25.6035   -2.4659 O.2       1 UNK        -0.5103 
     37 C          27.0722   27.5510    3.0444 C.2       5 UNK         0.5055 
     38 O          27.9458   27.7371    3.8931 O.2       5 UNK        -0.5220 
     39 N          26.5200   28.5582    2.3518 N.am      6 UNK        -0.4450 
     40 CA         26.8917   29.9723    2.4474 C.3       6 UNK         0.0367 
     41 CB         25.6957   30.8308    1.9951 C.3       6 UNK        -0.1929 
     42 C          28.1737   30.2657    1.6410 C.2       6 UNK         0.5070 
     43 O          28.1807   31.1420    0.7763 O.2       6 UNK        -0.5237 
     44 N          29.2339   29.4990    1.9235 N.am      7 UNK        -0.4739 
     45 CA         30.5214   29.5276    1.2227 C.3       7 UNK         0.0276 
     46 CB         31.1304   28.1169    1.2610 C.3       7 UNK        -0.1927 
     47 C          31.4939   30.5992    1.7566 C.2       7 UNK         0.5013 
     48 O          32.6307   30.6653    1.2843 O.2       7 UNK        -0.5193 
     49 N          31.0283   31.4229    2.7096 N.am      8 UNK        -0.4253 
     50 CA         31.6605   32.6282    3.2563 C.3       8 UNK         0.0242 
     51 CB         31.5613   33.7816    2.2316 C.3       8 UNK        -0.2000 
     52 C          33.0889   32.3712    3.7667 C.2       8 UNK         0.4948 
     53 O          33.2454   31.7342    4.8092 O.2       8 UNK        -0.5275 
     54 N          34.0953   32.8422    3.0150 N.am      9 UNK        -0.4246 
     55 CA         35.5288   32.7360    3.3041 C.3       9 UNK         0.0261 
     56 CB         36.3228   33.4175    2.1782 C.3       9 UNK        -0.1959 
     57 C          36.0417   31.3027    3.5290 C.2       9 UNK         0.5033 
     58 O          37.0247   31.1335    4.2517 O.2       9 UNK        -0.5390 
     59 N          35.3520   30.2952    2.9720 N.am      10 UNK        -0.4215 
     60 CA         35.6137   28.8738    3.2271 C.3       10 UNK         0.0240 
     61 CB         34.7560   28.0254    2.2782 C.3       10 UNK        -0.1982 
     62 C          35.3854   28.4492    4.6944 C.2       10 UNK         0.4970 
     63 O          35.9651   27.4492    5.1184 O.2       10 UNK        -0.4916 
     64 N          34.5769   29.2173    5.4363 N.am      11 UNK        -0.4279 
     65 CA         34.3690   29.1055    6.8870 C.3       11 UNK         0.1003 
     66 C          35.0490   30.2672    7.6731 C.2       11 UNK         0.5709 
     67 N          35.9339   31.0593    7.0764 N.am      11 UNK        -0.7358 
     68 O          34.7978   30.4412    8.8635 O.2       11 UNK        -0.4999 
     69 C69        32.8576   28.9559    7.2209 C.3       12 UNK        -0.0954 
     70 S70        32.2697   27.2637    6.8934 S.3       12 UNK        -0.2268 
     71 C71        31.4486   27.4474    5.2844 C.3       12 UNK         0.0203 
     72 H72        27.8701   20.4048    0.0698 H         1 UNK         0.0888 
     73 H73        28.4195   21.4055    1.4119 H         1 UNK         0.0888 
     74 H74        27.0121   21.8991    0.4629 H         1 UNK         0.0888 
     75 H75        29.8422   23.1409    0.9797 H         1 UNK         0.3017 
     76 H76        31.1327   23.2387   -1.5864 H         1 UNK         0.0873 
     77 H77        31.5662   25.0768    0.8146 H         1 UNK         0.0745 
     78 H78        32.6420   24.8900   -0.5472 H         1 UNK         0.0745 
     79 H79        33.7587   22.8986    3.0689 H         1 UNK         0.0705 
     80 H80        34.0292   24.4352    2.2857 H         1 UNK         0.0705 
     81 H81        33.1774   26.0865    3.7099 H         1 UNK         0.1334 
     82 H82        29.3095   25.7742    5.4993 H         1 UNK         0.1417 
     83 H83        30.8440   22.5363    3.1306 H         1 UNK         0.1562 
     84 H84        28.2915   23.4924    5.6172 H         1 UNK         0.0748 
     85 H85        28.9267   22.1973    4.6454 H         1 UNK         0.0748 
     86 H86        27.2161   25.4990    4.7229 H         1 UNK         0.0940 
     87 H87        25.6482   24.9613    4.2564 H         1 UNK         0.0940 
     88 H88        27.4507   25.8037    1.9857 H         1 UNK         0.0703 
     89 H89        25.5457   25.6241    0.9385 H         1 UNK         0.3081 
     90 H90        22.4947   25.4627    1.3875 H         1 UNK         0.0719 
     91 H91        21.3320   27.5289    0.5484 H         1 UNK         0.0809 
     92 H92        22.6577   28.5180    1.1584 H         1 UNK         0.0809 
     93 H93        21.6447   27.6088    2.2719 H         1 UNK         0.0809 
     94 H94        24.2443   27.0647   -0.4481 H         1 UNK         0.2990 
     95 H95        24.2890   24.4073   -2.7556 H         1 UNK         0.0690 
     96 H96        23.7986   26.1406   -4.4445 H         1 UNK         0.0788 
     97 H97        23.2035   27.2390   -3.1986 H         1 UNK         0.0788 
     98 H98        22.3334   25.7549   -3.5602 H         1 UNK         0.0788 
     99 H99        25.7159   26.7248   -3.0327 H         1 UNK         0.2993 
    100 H100       28.0684   26.3454   -2.7780 H         1 UNK         0.0949 
    101 H101       28.9073   28.1359   -1.2336 H         1 UNK         0.0767 
    102 H102       27.1849   28.3510   -1.4939 H         1 UNK         0.0767 
    103 H103       27.7652   27.6354    0.0060 H         1 UNK         0.0767 
    104 H104       28.4135   24.8294   -0.3331 H         1 UNK         0.3013 
    105 H105       25.8289   28.3271    1.6558 H         1 UNK         0.3121 
    106 H106       27.1012   30.2148    3.4916 H         1 UNK         0.0774 
    107 H107       25.9169   31.8939    2.0990 H         1 UNK         0.0815 
    108 H108       25.4403   30.6517    0.9499 H         1 UNK         0.0815 
    109 H109       24.8103   30.6262    2.5974 H         1 UNK         0.0815 
    110 H110       29.1256   28.8113    2.6635 H         1 UNK         0.2987 
    111 H111       30.3407   29.7785    0.1751 H         1 UNK         0.0949 
    112 H112       31.3399   27.7988    2.2805 H         1 UNK         0.0806 
    113 H113       30.4558   27.3847    0.8174 H         1 UNK         0.0806 
    114 H114       32.0631   28.0735    0.6975 H         1 UNK         0.0806 
    115 H115       30.0970   31.2311    3.0487 H         1 UNK         0.3010 
    116 H116       31.0767   32.9164    4.1320 H         1 UNK         0.0829 
    117 H117       30.5193   34.0124    2.0089 H         1 UNK         0.0813 
    118 H118       32.0121   34.6968    2.6186 H         1 UNK         0.0813 
    119 H119       32.0480   33.5406    1.2857 H         1 UNK         0.0813 
    120 H120       33.8486   33.3149    2.1574 H         1 UNK         0.3038 
    121 H121       35.7080   33.2860    4.2303 H         1 UNK         0.0769 
    122 H122       37.3949   33.3788    2.3772 H         1 UNK         0.0811 
    123 H123       36.0527   34.4692    2.0803 H         1 UNK         0.0811 
    124 H124       36.1525   32.9342    1.2152 H         1 UNK         0.0811 
    125 H125       34.5457   30.5194    2.3980 H         1 UNK         0.3204 
    126 H126       36.6643   28.6869    2.9952 H         1 UNK         0.0748 
    127 H127       34.9951   26.9658    2.3761 H         1 UNK         0.0771 
    128 H128       33.6961   28.1480    2.4944 H         1 UNK         0.0771 
    129 H129       34.9206   28.2993    1.2359 H         1 UNK         0.0771 
    130 H130       34.1586   30.0453    5.0206 H         1 UNK         0.2980 
    131 H131       34.8782   28.2141    7.2571 H         1 UNK         0.0545 
    132 H132       36.2044   30.9181    6.1109 H         1 UNK         0.3459 
    133 H133       36.3656   31.7946    7.6126 H         1 UNK         0.3459 
    134 H134       32.2569   29.6830    6.6714 H         1 UNK         0.0616 
    135 H135       32.6627   29.1418    8.2782 H         1 UNK         0.0616 
    136 H136       30.4912   27.9543    5.4154 H         1 UNK         0.0634 
    137 H137       32.0519   28.0810    4.6330 H         1 UNK         0.0634 
@<TRIPOS>BOND
     1    1    2 1    
     2    1   72 1    
     3    1   73 1    
     4    1   74 1    
     5    2    3 2    
     6    2    4 am   BACKBONE|DICT|INTERRES
     7    4    5 1    
     8    4   75 1    
     9    5    6 1    
    10    5   35 1    
    11    5   76 1    
    12    6    7 1    
    13    6   77 1    
    14    6   78 1    
    15    7    8 1    
    16    8    9 1    
    17    8   79 1    
    18    8   80 1    
    19    9   10 ar   
    20    9   14 ar   
    21   10   11 ar   
    22   10   81 1    
    23   11   12 ar   
    24   11   71 1    
    25   12   13 ar   
    26   12   82 1    
    27   13   14 ar   
    28   13   15 1    
    29   14   83 1    
    30   15   16 1    
    31   15   84 1    
    32   15   85 1    
    33   16   17 1    
    34   17   18 1    
    35   17   86 1    
    36   17   87 1    
    37   18   19 1    
    38   18   37 1    
    39   18   88 1    
    40   19   20 am   BACKBONE|DICT|INTERRES
    41   19   89 1    
    42   20   21 2    
    43   20   22 1    
    44   22   23 1    
    45   22   24 1    
    46   22   90 1    
    47   23   91 1    
    48   23   92 1    
    49   23   93 1    
    50   24   25 am   BACKBONE|DICT|INTERRES
    51   24   94 1    
    52   25   26 2    
    53   25   27 1    
    54   27   28 1    
    55   27   29 1    
    56   27   95 1    
    57   28   96 1    
    58   28   97 1    
    59   28   98 1    
    60   29   30 am   BACKBONE|DICT|INTERRES
    61   29   99 1    
    62   30   31 2    
    63   30   32 1    
    64   32   33 1    
    65   32   34 1    
    66   32  100 1    
    67   33  101 1    
    68   33  102 1    
    69   33  103 1    
    70   34   35 am   BACKBONE|DICT|INTERRES
    71   34  104 1    
    72   35   36 2    
    73   37   38 2    
    74   37   39 am   BACKBONE|DICT|INTERRES
    75   39   40 1    
    76   39  105 1    
    77   40   41 1    
    78   40   42 1    
    79   40  106 1    
    80   41  107 1    
    81   41  108 1    
    82   41  109 1    
    83   42   43 2    
    84   42   44 am   BACKBONE|DICT|INTERRES
    85   44   45 1    
    86   44  110 1    
    87   45   46 1    
    88   45   47 1    
    89   45  111 1    
    90   46  112 1    
    91   46  113 1    
    92   46  114 1    
    93   47   48 2    
    94   47   49 am   BACKBONE|DICT|INTERRES
    95   49   50 1    
    96   49  115 1    
    97   50   51 1    
    98   50   52 1    
    99   50  116 1    
   100   51  117 1    
   101   51  118 1    
   102   51  119 1    
   103   52   53 2    
   104   52   54 am   BACKBONE|DICT|INTERRES
   105   54   55 1    
   106   54  120 1    
   107   55   56 1    
   108   55   57 1    
   109   55  121 1    
   110   56  122 1    
   111   56  123 1    
   112   56  124 1    
   113   57   58 2    
   114   57   59 am   BACKBONE|DICT|INTERRES
   115   59   60 1    
   116   59  125 1    
   117   60   61 1    
   118   60   62 1    
   119   60  126 1    
   120   61  127 1    
   121   61  128 1    
   122   61  129 1    
   123   62   63 2    
   124   62   64 am   BACKBONE|DICT|INTERRES
   125   64   65 1    
   126   64  130 1    
   127   65   66 1    
   128   65   69 1    
   129   65  131 1    
   130   66   67 am   BACKBONE|DICT|INTERRES
   131   66   68 2    
   132   67  132 1    
   133   67  133 1    
   134   69   70 1    
   135   69  134 1    
   136   69  135 1    
   137   70   71 1    
   138   71  136 1    
   139   71  137 1    
@<TRIPOS>SUBSTRUCTURE
     1 UNK         1 GROUP             0       ****    0 ROOT    
