@<TRIPOS>MOLECULE
3R136
137   139    1
SMALL
USER_CHARGES


@<TRIPOS>ATOM
      1 CA         28.4995   24.4093    4.5567 C.3       0 UNK        -0.1979 
      2 C          28.5193   23.4123    3.4090 C.2       0 UNK         0.4864 
      3 O          28.0371   22.2882    3.5595 O.2       0 UNK        -0.5359 
      4 N          29.0583   23.8184    2.2548 N.am      1 UNK        -0.4318 
      5 CA         29.0729   23.0521    1.0097 C.3       1 UNK         0.0824 
      6 C6         30.2853   23.4344    0.1226 C.3       12 UNK        -0.0944 
      7 S7         31.8497   22.5920    0.5551 S.3       12 UNK        -0.2672 
      8 C8         32.3191   23.2404    2.2011 C.3       12 UNK         0.0333 
      9 C9         32.2826   24.7604    2.3468 C.ar      12 UNK        -0.0807 
     10 C10        31.8411   25.3130    3.5522 C.ar      12 UNK        -0.0894 
     11 C11        31.7243   26.6962    3.7049 C.ar      12 UNK        -0.0804 
     12 C12        32.0785   27.5361    2.6464 C.ar      12 UNK        -0.0824 
     13 C13        32.5378   27.0001    1.4389 C.ar      12 UNK        -0.0762 
     14 C14        32.6613   25.6137    1.3044 C.ar      12 UNK        -0.0782 
     15 C15        32.8577   27.9102    0.2611 C.3       12 UNK         0.0230 
     16 S16        31.4078   28.8716   -0.2886 S.3       12 UNK        -0.2608 
     17 C17        30.2825   27.5625   -0.8709 C.3       12 UNK        -0.0989 
     18 CA         28.8107   27.8108   -0.4475 C.3       5 UNK         0.0716 
     19 N          27.8737   27.0771   -1.2918 N.am      5 UNK        -0.4135 
     20 C          27.4082   27.5120   -2.4670 C.2       4 UNK         0.5031 
     21 O          27.7502   28.5716   -2.9941 O.2       4 UNK        -0.5229 
     22 CA         26.3735   26.6233   -3.1740 C.3       4 UNK         0.0329 
     23 CB         27.0695   25.5029   -3.9642 C.3       4 UNK        -0.2001 
     24 N          25.3893   26.0386   -2.2602 N.am      4 UNK        -0.4303 
     25 C          24.4524   26.7259   -1.5870 C.2       3 UNK         0.5044 
     26 O          24.3422   27.9514   -1.6300 O.2       3 UNK        -0.5152 
     27 CA         23.4445   25.9165   -0.7469 C.3       3 UNK         0.0319 
     28 CB         22.0722   25.8855   -1.4401 C.3       3 UNK        -0.2001 
     29 N          23.8874   24.5404   -0.5115 N.am      3 UNK        -0.4354 
     30 C          24.7471   24.1791    0.4487 C.2       2 UNK         0.4964 
     31 O          25.1370   24.9420    1.3339 O.2       2 UNK        -0.5047 
     32 CA         25.2722   22.7286    0.4098 C.3       2 UNK         0.0288 
     33 CB         25.0836   22.0267   -0.9558 C.3       2 UNK        -0.2113 
     34 N          26.6762   22.6439    0.8268 N.am      2 UNK        -0.4145 
     35 C          27.7243   23.3014    0.3054 C.2       1 UNK         0.5006 
     36 O          27.6495   24.0945   -0.6396 O.2       1 UNK        -0.5103 
     37 C          28.4640   27.4407    1.0031 C.2       5 UNK         0.5055 
     38 O          29.0994   26.5701    1.5967 O.2       5 UNK        -0.5220 
     39 N          27.3753   28.0383    1.5044 N.am      6 UNK        -0.4450 
     40 CA         26.7506   27.6783    2.7781 C.3       6 UNK         0.0367 
     41 CB         25.2720   28.0991    2.7455 C.3       6 UNK        -0.1929 
     42 C          27.4391   28.2836    4.0116 C.2       6 UNK         0.5070 
     43 O          27.4054   27.6610    5.0732 O.2       6 UNK        -0.5237 
     44 N          28.0170   29.4846    3.8801 N.am      7 UNK        -0.4739 
     45 CA         28.5835   30.2647    4.9829 C.3       7 UNK         0.0276 
     46 CB         27.4471   30.8447    5.8525 C.3       7 UNK        -0.1927 
     47 C          29.4590   31.3989    4.4355 C.2       7 UNK         0.5013 
     48 O          29.3332   31.7506    3.2598 O.2       7 UNK        -0.5193 
     49 N          30.2748   31.9790    5.3302 N.am      8 UNK        -0.4253 
     50 CA         31.0507   33.2171    5.1682 C.3       8 UNK         0.0242 
     51 CB         30.1004   34.4336    5.1152 C.3       8 UNK        -0.2000 
     52 C          32.0474   33.1885    3.9932 C.2       8 UNK         0.4948 
     53 O          32.0847   34.1257    3.1921 O.2       8 UNK        -0.5275 
     54 N          32.8458   32.1182    3.9182 N.am      9 UNK        -0.4246 
     55 CA         33.8766   31.9203    2.9011 C.3       9 UNK         0.0261 
     56 CB         33.2384   31.4513    1.5770 C.3       9 UNK        -0.1959 
     57 C          34.9673   30.9956    3.4623 C.2       9 UNK         0.5033 
     58 O          35.4406   31.2452    4.5721 O.2       9 UNK        -0.5390 
     59 N          35.3503   29.9571    2.7039 N.am      10 UNK        -0.4215 
     60 CA         36.4507   29.0193    2.9774 C.3       10 UNK         0.0240 
     61 CB         36.4936   27.9603    1.8627 C.3       10 UNK        -0.1982 
     62 C          36.4202   28.3318    4.3559 C.2       10 UNK         0.4970 
     63 O          37.4822   28.0069    4.8884 O.2       10 UNK        -0.4916 
     64 N          35.2185   28.1380    4.9085 N.am      11 UNK        -0.4279 
     65 CA         34.9780   27.6688    6.2797 C.3       11 UNK         0.1003 
     66 C          35.3817   28.6665    7.4073 C.2       11 UNK         0.5709 
     67 N          35.6600   29.9335    7.1227 N.am      11 UNK        -0.7358 
     68 O          35.4579   28.2739    8.5694 O.2       11 UNK        -0.4999 
     69 C69        33.5217   27.1639    6.4526 C.3       12 UNK        -0.0954 
     70 S70        32.2642   28.3644    5.8841 S.3       12 UNK        -0.2268 
     71 C71        31.1259   27.2724    4.9792 C.3       12 UNK         0.0203 
     72 H72        29.1116   24.0489    5.3826 H         1 UNK         0.0888 
     73 H73        27.4809   24.5480    4.9181 H         1 UNK         0.0888 
     74 H74        28.8788   25.3832    4.2478 H         1 UNK         0.0888 
     75 H75        29.3418   24.7927    2.1541 H         1 UNK         0.3017 
     76 H76        29.1370   21.9841    1.2296 H         1 UNK         0.0873 
     77 H77        30.0945   23.1663   -0.9185 H         1 UNK         0.0745 
     78 H78        30.4333   24.5114    0.1215 H         1 UNK         0.0745 
     79 H79        31.6638   22.7753    2.9391 H         1 UNK         0.0705 
     80 H80        33.3279   22.8966    2.4323 H         1 UNK         0.0705 
     81 H81        31.5492   24.6606    4.3634 H         1 UNK         0.1334 
     82 H82        31.9505   28.6037    2.7502 H         1 UNK         0.1417 
     83 H83        33.0087   25.1946    0.3703 H         1 UNK         0.1562 
     84 H84        33.2386   27.3360   -0.5850 H         1 UNK         0.0748 
     85 H85        33.6553   28.5956    0.5439 H         1 UNK         0.0748 
     86 H86        30.6291   26.5838   -0.5477 H         1 UNK         0.0940 
     87 H87        30.3604   27.5525   -1.9590 H         1 UNK         0.0940 
     88 H88        28.6046   28.8782   -0.5582 H         1 UNK         0.0703 
     89 H89        27.5734   26.1714   -0.9418 H         1 UNK         0.3081 
     90 H90        25.8322   27.2518   -3.8845 H         1 UNK         0.0719 
     91 H91        27.6064   24.8164   -3.3082 H         1 UNK         0.0809 
     92 H92        26.3526   24.9215   -4.5441 H         1 UNK         0.0809 
     93 H93        27.7946   25.9148   -4.6675 H         1 UNK         0.0809 
     94 H94        25.4313   25.0385   -2.1332 H         1 UNK         0.2990 
     95 H95        23.3281   26.4270    0.2114 H         1 UNK         0.0690 
     96 H96        21.3340   25.3591   -0.8348 H         1 UNK         0.0788 
     97 H97        22.1206   25.3957   -2.4136 H         1 UNK         0.0788 
     98 H98        21.6939   26.8959   -1.6024 H         1 UNK         0.0788 
     99 H99        23.5927   23.8452   -1.1827 H         1 UNK         0.2993 
    100 H100       24.6954   22.1784    1.1547 H         1 UNK         0.0949 
    101 H101       24.0289   21.9218   -1.2126 H         1 UNK         0.0767 
    102 H102       25.5760   22.5671   -1.7656 H         1 UNK         0.0767 
    103 H103       25.5002   21.0194   -0.9360 H         1 UNK         0.0767 
    104 H104       26.8504   22.1079    1.6691 H         1 UNK         0.3013 
    105 H105       26.8916   28.7216    0.9396 H         1 UNK         0.3121 
    106 H106       26.7864   26.5912    2.8829 H         1 UNK         0.0774 
    107 H107       24.7441   27.6283    1.9164 H         1 UNK         0.0815 
    108 H108       25.1588   29.1794    2.6476 H         1 UNK         0.0815 
    109 H109       24.7626   27.7989    3.6623 H         1 UNK         0.0815 
    110 H110       28.0620   29.9356    2.9747 H         1 UNK         0.2987 
    111 H111       29.2083   29.6181    5.6008 H         1 UNK         0.0949 
    112 H112       26.7799   31.4789    5.2673 H         1 UNK         0.0806 
    113 H113       26.8452   30.0577    6.3067 H         1 UNK         0.0806 
    114 H114       27.8396   31.4520    6.6690 H         1 UNK         0.0806 
    115 H115       30.3076   31.5782    6.2577 H         1 UNK         0.3010 
    116 H116       31.6567   33.3190    6.0700 H         1 UNK         0.0829 
    117 H117       29.4422   34.4621    5.9836 H         1 UNK         0.0813 
    118 H118       30.6608   35.3694    5.1051 H         1 UNK         0.0813 
    119 H119       29.4755   34.4188    4.2214 H         1 UNK         0.0813 
    120 H120       32.7998   31.4165    4.6448 H         1 UNK         0.3038 
    121 H121       34.3717   32.8761    2.7166 H         1 UNK         0.0769 
    122 H122       32.6778   30.5297    1.7154 H         1 UNK         0.0811 
    123 H123       33.9816   31.2938    0.7947 H         1 UNK         0.0811 
    124 H124       32.5398   32.1953    1.1937 H         1 UNK         0.0811 
    125 H125       34.8979   29.8534    1.8086 H         1 UNK         0.3204 
    126 H126       37.3754   29.5982    2.9334 H         1 UNK         0.0748 
    127 H127       36.6165   28.4168    0.8804 H         1 UNK         0.0771 
    128 H128       37.3323   27.2772    2.0055 H         1 UNK         0.0771 
    129 H129       35.5848   27.3571    1.8446 H         1 UNK         0.0771 
    130 H130       34.3970   28.4317    4.4029 H         1 UNK         0.2980 
    131 H131       35.6268   26.8034    6.4275 H         1 UNK         0.0545 
    132 H132       35.9252   30.5553    7.8689 H         1 UNK         0.3459 
    133 H133       35.5970   30.2886    6.1718 H         1 UNK         0.3459 
    134 H134       33.4075   26.2347    5.8935 H         1 UNK         0.0616 
    135 H135       33.3118   26.9010    7.4910 H         1 UNK         0.0616 
    136 H136       30.2389   27.8359    4.7026 H         1 UNK         0.0634 
    137 H137       30.7865   26.4820    5.6504 H         1 UNK         0.0634 
@<TRIPOS>BOND
     1    1    2 1    
     2    1   72 1    
     3    1   73 1    
     4    1   74 1    
     5    2    3 2    
     6    2    4 am   BACKBONE|DICT|INTERRES
     7    4    5 1    
     8    4   75 1    
     9    5    6 1    
    10    5   35 1    
    11    5   76 1    
    12    6    7 1    
    13    6   77 1    
    14    6   78 1    
    15    7    8 1    
    16    8    9 1    
    17    8   79 1    
    18    8   80 1    
    19    9   10 ar   
    20    9   14 ar   
    21   10   11 ar   
    22   10   81 1    
    23   11   12 ar   
    24   11   71 1    
    25   12   13 ar   
    26   12   82 1    
    27   13   14 ar   
    28   13   15 1    
    29   14   83 1    
    30   15   16 1    
    31   15   84 1    
    32   15   85 1    
    33   16   17 1    
    34   17   18 1    
    35   17   86 1    
    36   17   87 1    
    37   18   19 1    
    38   18   37 1    
    39   18   88 1    
    40   19   20 am   BACKBONE|DICT|INTERRES
    41   19   89 1    
    42   20   21 2    
    43   20   22 1    
    44   22   23 1    
    45   22   24 1    
    46   22   90 1    
    47   23   91 1    
    48   23   92 1    
    49   23   93 1    
    50   24   25 am   BACKBONE|DICT|INTERRES
    51   24   94 1    
    52   25   26 2    
    53   25   27 1    
    54   27   28 1    
    55   27   29 1    
    56   27   95 1    
    57   28   96 1    
    58   28   97 1    
    59   28   98 1    
    60   29   30 am   BACKBONE|DICT|INTERRES
    61   29   99 1    
    62   30   31 2    
    63   30   32 1    
    64   32   33 1    
    65   32   34 1    
    66   32  100 1    
    67   33  101 1    
    68   33  102 1    
    69   33  103 1    
    70   34   35 am   BACKBONE|DICT|INTERRES
    71   34  104 1    
    72   35   36 2    
    73   37   38 2    
    74   37   39 am   BACKBONE|DICT|INTERRES
    75   39   40 1    
    76   39  105 1    
    77   40   41 1    
    78   40   42 1    
    79   40  106 1    
    80   41  107 1    
    81   41  108 1    
    82   41  109 1    
    83   42   43 2    
    84   42   44 am   BACKBONE|DICT|INTERRES
    85   44   45 1    
    86   44  110 1    
    87   45   46 1    
    88   45   47 1    
    89   45  111 1    
    90   46  112 1    
    91   46  113 1    
    92   46  114 1    
    93   47   48 2    
    94   47   49 am   BACKBONE|DICT|INTERRES
    95   49   50 1    
    96   49  115 1    
    97   50   51 1    
    98   50   52 1    
    99   50  116 1    
   100   51  117 1    
   101   51  118 1    
   102   51  119 1    
   103   52   53 2    
   104   52   54 am   BACKBONE|DICT|INTERRES
   105   54   55 1    
   106   54  120 1    
   107   55   56 1    
   108   55   57 1    
   109   55  121 1    
   110   56  122 1    
   111   56  123 1    
   112   56  124 1    
   113   57   58 2    
   114   57   59 am   BACKBONE|DICT|INTERRES
   115   59   60 1    
   116   59  125 1    
   117   60   61 1    
   118   60   62 1    
   119   60  126 1    
   120   61  127 1    
   121   61  128 1    
   122   61  129 1    
   123   62   63 2    
   124   62   64 am   BACKBONE|DICT|INTERRES
   125   64   65 1    
   126   64  130 1    
   127   65   66 1    
   128   65   69 1    
   129   65  131 1    
   130   66   67 am   BACKBONE|DICT|INTERRES
   131   66   68 2    
   132   67  132 1    
   133   67  133 1    
   134   69   70 1    
   135   69  134 1    
   136   69  135 1    
   137   70   71 1    
   138   71  136 1    
   139   71  137 1    
@<TRIPOS>SUBSTRUCTURE
     1 UNK         1 GROUP             0       ****    0 ROOT    
