@<TRIPOS>MOLECULE
3R136
137   139    1
SMALL
USER_CHARGES


@<TRIPOS>ATOM
      1 CA         28.6027   24.2520    3.8919 C.3       0 UNK        -0.1979 
      2 C          28.3178   23.3573    2.6970 C.2       0 UNK         0.4864 
      3 O          27.1625   23.2286    2.2912 O.2       0 UNK        -0.5359 
      4 N          29.3643   22.7365    2.1354 N.am      1 UNK        -0.4318 
      5 CA         29.2901   21.6830    1.1118 C.3       1 UNK         0.0824 
      6 C6         30.6825   21.1007    0.7640 C.3       12 UNK        -0.0944 
      7 S7         31.5816   20.4778    2.2252 S.3       12 UNK        -0.2672 
      8 C8         33.0507   21.5541    2.2527 C.3       12 UNK         0.0333 
      9 C9         32.7241   22.9563    2.7461 C.ar      12 UNK        -0.0807 
     10 C10        32.6435   23.2117    4.1176 C.ar      12 UNK        -0.0894 
     11 C11        32.3794   24.5019    4.5858 C.ar      12 UNK        -0.0804 
     12 C12        32.1882   25.5418    3.6709 C.ar      12 UNK        -0.0824 
     13 C13        32.2353   25.2915    2.2963 C.ar      12 UNK        -0.0762 
     14 C14        32.5188   24.0008    1.8394 C.ar      12 UNK        -0.0782 
     15 C15        31.9660   26.4066    1.2986 C.3       12 UNK         0.0230 
     16 S16        30.2233   26.4061    0.7783 S.3       12 UNK        -0.2608 
     17 C17        29.4308   27.3348    2.1345 C.3       12 UNK        -0.0989 
     18 CA         28.8382   28.6852    1.6705 C.3       5 UNK         0.0716 
     19 N          27.8737   28.4920    0.5839 N.am      5 UNK        -0.4135 
     20 C          27.0746   29.4074    0.0182 C.2       4 UNK         0.5031 
     21 O          27.1250   30.6117    0.2651 O.2       4 UNK        -0.5229 
     22 CA         25.9846   28.8776   -0.9326 C.3       4 UNK         0.0329 
     23 CB         26.3902   29.1167   -2.3951 C.3       4 UNK        -0.2001 
     24 N          25.6671   27.4548   -0.7497 N.am      4 UNK        -0.4303 
     25 C          25.2383   26.8633    0.3750 C.2       3 UNK         0.5044 
     26 O          25.0228   27.4723    1.4240 O.2       3 UNK        -0.5152 
     27 CA         25.1055   25.3289    0.3525 C.3       3 UNK         0.0319 
     28 CB         23.7910   24.8865   -0.3188 C.3       3 UNK        -0.2001 
     29 N          26.2768   24.6343   -0.2110 N.am      3 UNK        -0.4354 
     30 C          26.7312   24.6417   -1.4766 C.2       2 UNK         0.4964 
     31 O          26.1626   25.2343   -2.3949 O.2       2 UNK        -0.5047 
     32 CA         28.0603   23.9258   -1.7820 C.3       2 UNK         0.0288 
     33 CB         29.0483   24.8815   -2.4757 C.3       2 UNK        -0.2113 
     34 N          28.6998   23.3669   -0.5873 N.am      2 UNK        -0.4145 
     35 C          28.5581   22.0972   -0.1818 C.2       1 UNK         0.5006 
     36 O          27.8797   21.2604   -0.7807 O.2       1 UNK        -0.5103 
     37 C          28.2439   29.4290    2.8865 C.2       5 UNK         0.5055 
     38 O          28.9568   30.2055    3.5206 O.2       5 UNK        -0.5220 
     39 N          26.9468   29.2204    3.1678 N.am      6 UNK        -0.4450 
     40 CA         26.1984   29.9102    4.2238 C.3       6 UNK         0.0367 
     41 CB         24.8093   29.2658    4.3548 C.3       6 UNK        -0.1929 
     42 C          26.0659   31.4325    4.0121 C.2       6 UNK         0.5070 
     43 O          25.8456   32.1529    4.9857 O.2       6 UNK        -0.5237 
     44 N          26.2108   31.8957    2.7634 N.am      7 UNK        -0.4739 
     45 CA         26.2135   33.3067    2.3740 C.3       7 UNK         0.0276 
     46 CB         25.2165   33.4917    1.2153 C.3       7 UNK        -0.1927 
     47 C          27.6240   33.7888    1.9789 C.2       7 UNK         0.5013 
     48 O          27.7459   34.8838    1.4264 O.2       7 UNK        -0.5193 
     49 N          28.6583   32.9811    2.2486 N.am      8 UNK        -0.4253 
     50 CA         30.0557   33.2537    1.9225 C.3       8 UNK         0.0242 
     51 CB         30.4323   32.5158    0.6196 C.3       8 UNK        -0.2000 
     52 C          30.9281   32.9034    3.1393 C.2       8 UNK         0.4948 
     53 O          30.6061   33.3367    4.2482 O.2       8 UNK        -0.5275 
     54 N          32.0185   32.1586    2.9238 N.am      9 UNK        -0.4246 
     55 CA         32.9696   31.7403    3.9499 C.3       9 UNK         0.0261 
     56 CB         33.9715   32.8798    4.2468 C.3       9 UNK        -0.1959 
     57 C          33.6117   30.4151    3.5128 C.2       9 UNK         0.5033 
     58 O          32.9033   29.4103    3.4360 O.2       9 UNK        -0.5390 
     59 N          34.9237   30.4347    3.2329 N.am      10 UNK        -0.4215 
     60 CA         35.7846   29.2893    2.9161 C.3       10 UNK         0.0240 
     61 CB         35.3788   28.6237    1.5804 C.3       10 UNK        -0.1982 
     62 C          35.8826   28.3312    4.1190 C.2       10 UNK         0.4970 
     63 O          36.2638   28.7870    5.1988 O.2       10 UNK        -0.4916 
     64 N          35.5601   27.0454    3.9227 N.am      11 UNK        -0.4279 
     65 CA         35.6180   25.9829    4.9427 C.3       11 UNK         0.1003 
     66 C          37.0641   25.5635    5.3575 C.2       11 UNK         0.5709 
     67 N          38.0895   25.8803    4.5747 N.am      11 UNK        -0.7358 
     68 O          37.2681   24.9211    6.3847 O.2       11 UNK        -0.4999 
     69 C69        34.6756   26.2766    6.1507 C.3       12 UNK        -0.0954 
     70 S70        33.9336   24.7711    6.8650 S.3       12 UNK        -0.2268 
     71 C71        32.2912   24.7646    6.0816 C.3       12 UNK         0.0203 
     72 H72        28.6612   23.6547    4.8012 H         1 UNK         0.0888 
     73 H73        29.5438   24.7833    3.7702 H         1 UNK         0.0888 
     74 H74        27.8090   24.9872    4.0207 H         1 UNK         0.0888 
     75 H75        30.2893   22.8948    2.5137 H         1 UNK         0.3017 
     76 H76        28.6974   20.8778    1.5515 H         1 UNK         0.0873 
     77 H77        31.2905   21.8410    0.2420 H         1 UNK         0.0745 
     78 H78        30.5773   20.2629    0.0715 H         1 UNK         0.0745 
     79 H79        33.5040   21.5862    1.2606 H         1 UNK         0.0705 
     80 H80        33.7981   21.1058    2.9091 H         1 UNK         0.0705 
     81 H81        32.7973   22.4070    4.8240 H         1 UNK         0.1334 
     82 H82        31.9898   26.5430    4.0290 H         1 UNK         0.1417 
     83 H83        32.5723   23.8116    0.7758 H         1 UNK         0.1562 
     84 H84        32.5990   26.2778    0.4194 H         1 UNK         0.0748 
     85 H85        32.2215   27.3790    1.7204 H         1 UNK         0.0748 
     86 H86        30.1499   27.4954    2.9394 H         1 UNK         0.0940 
     87 H87        28.6429   26.7077    2.5517 H         1 UNK         0.0940 
     88 H88        29.6485   29.2987    1.2753 H         1 UNK         0.0703 
     89 H89        27.7655   27.5377    0.2763 H         1 UNK         0.3081 
     90 H90        25.0749   29.4452   -0.7271 H         1 UNK         0.0719 
     91 H91        27.2788   28.5445   -2.6656 H         1 UNK         0.0809 
     92 H92        25.5896   28.8361   -3.0798 H         1 UNK         0.0809 
     93 H93        26.6124   30.1701   -2.5727 H         1 UNK         0.0809 
     94 H94        25.8215   26.8435   -1.5489 H         1 UNK         0.2990 
     95 H95        25.0576   25.0085    1.3948 H         1 UNK         0.0690 
     96 H96        23.6727   23.8037   -0.2795 H         1 UNK         0.0788 
     97 H97        23.7369   25.1920   -1.3640 H         1 UNK         0.0788 
     98 H98        22.9310   25.3250    0.1892 H         1 UNK         0.0788 
     99 H99        26.8038   24.1025    0.4755 H         1 UNK         0.2993 
    100 H100       27.8299   23.1231   -2.4860 H         1 UNK         0.0949 
    101 H101       29.2341   25.7770   -1.8835 H         1 UNK         0.0767 
    102 H102       30.0065   24.3968   -2.6638 H         1 UNK         0.0767 
    103 H103       28.6605   25.2100   -3.4410 H         1 UNK         0.0767 
    104 H104       29.2630   23.9968   -0.0316 H         1 UNK         0.3013 
    105 H105       26.4124   28.5856    2.5829 H         1 UNK         0.3121 
    106 H106       26.7361   29.7601    5.1624 H         1 UNK         0.0774 
    107 H107       24.2371   29.7290    5.1599 H         1 UNK         0.0815 
    108 H108       24.2285   29.3730    3.4376 H         1 UNK         0.0815 
    109 H109       24.8837   28.2020    4.5812 H         1 UNK         0.0815 
    110 H110       26.4263   31.2429    2.0147 H         1 UNK         0.2987 
    111 H111       25.8879   33.9336    3.2066 H         1 UNK         0.0949 
    112 H112       24.2172   33.1584    1.4956 H         1 UNK         0.0806 
    113 H113       25.1364   34.5407    0.9272 H         1 UNK         0.0806 
    114 H114       25.5211   32.9318    0.3301 H         1 UNK         0.0806 
    115 H115       28.4926   32.1247    2.7669 H         1 UNK         0.3010 
    116 H116       30.1947   34.3241    1.7571 H         1 UNK         0.0829 
    117 H117       29.7632   32.7982   -0.1938 H         1 UNK         0.0813 
    118 H118       31.4435   32.7653    0.2962 H         1 UNK         0.0813 
    119 H119       30.3683   31.4339    0.7306 H         1 UNK         0.0813 
    120 H120       32.1856   31.7939    1.9962 H         1 UNK         0.3038 
    121 H121       32.4226   31.5193    4.8693 H         1 UNK         0.0769 
    122 H122       34.5089   33.1988    3.3529 H         1 UNK         0.0811 
    123 H123       34.7047   32.5795    4.9969 H         1 UNK         0.0811 
    124 H124       33.4581   33.7548    4.6460 H         1 UNK         0.0811 
    125 H125       35.4072   31.3135    3.3546 H         1 UNK         0.3204 
    126 H126       36.7882   29.6952    2.7798 H         1 UNK         0.0748 
    127 H127       36.0940   27.8534    1.2889 H         1 UNK         0.0771 
    128 H128       34.3942   28.1620    1.6284 H         1 UNK         0.0771 
    129 H129       35.3566   29.3554    0.7727 H         1 UNK         0.0771 
    130 H130       35.2577   26.7566    3.0044 H         1 UNK         0.2980 
    131 H131       35.2257   25.1076    4.4245 H         1 UNK         0.0545 
    132 H132       39.0191   25.5990    4.8441 H         1 UNK         0.3459 
    133 H133       37.9450   26.3944    3.7211 H         1 UNK         0.3459 
    134 H134       33.8621   26.9379    5.8484 H         1 UNK         0.0616 
    135 H135       35.2063   26.8150    6.9378 H         1 UNK         0.0616 
    136 H136       31.7858   25.7101    6.2842 H         1 UNK         0.0634 
    137 H137       31.6830   23.9882    6.5479 H         1 UNK         0.0634 
@<TRIPOS>BOND
     1    1    2 1    
     2    1   72 1    
     3    1   73 1    
     4    1   74 1    
     5    2    3 2    
     6    2    4 am   BACKBONE|DICT|INTERRES
     7    4    5 1    
     8    4   75 1    
     9    5    6 1    
    10    5   35 1    
    11    5   76 1    
    12    6    7 1    
    13    6   77 1    
    14    6   78 1    
    15    7    8 1    
    16    8    9 1    
    17    8   79 1    
    18    8   80 1    
    19    9   10 ar   
    20    9   14 ar   
    21   10   11 ar   
    22   10   81 1    
    23   11   12 ar   
    24   11   71 1    
    25   12   13 ar   
    26   12   82 1    
    27   13   14 ar   
    28   13   15 1    
    29   14   83 1    
    30   15   16 1    
    31   15   84 1    
    32   15   85 1    
    33   16   17 1    
    34   17   18 1    
    35   17   86 1    
    36   17   87 1    
    37   18   19 1    
    38   18   37 1    
    39   18   88 1    
    40   19   20 am   BACKBONE|DICT|INTERRES
    41   19   89 1    
    42   20   21 2    
    43   20   22 1    
    44   22   23 1    
    45   22   24 1    
    46   22   90 1    
    47   23   91 1    
    48   23   92 1    
    49   23   93 1    
    50   24   25 am   BACKBONE|DICT|INTERRES
    51   24   94 1    
    52   25   26 2    
    53   25   27 1    
    54   27   28 1    
    55   27   29 1    
    56   27   95 1    
    57   28   96 1    
    58   28   97 1    
    59   28   98 1    
    60   29   30 am   BACKBONE|DICT|INTERRES
    61   29   99 1    
    62   30   31 2    
    63   30   32 1    
    64   32   33 1    
    65   32   34 1    
    66   32  100 1    
    67   33  101 1    
    68   33  102 1    
    69   33  103 1    
    70   34   35 am   BACKBONE|DICT|INTERRES
    71   34  104 1    
    72   35   36 2    
    73   37   38 2    
    74   37   39 am   BACKBONE|DICT|INTERRES
    75   39   40 1    
    76   39  105 1    
    77   40   41 1    
    78   40   42 1    
    79   40  106 1    
    80   41  107 1    
    81   41  108 1    
    82   41  109 1    
    83   42   43 2    
    84   42   44 am   BACKBONE|DICT|INTERRES
    85   44   45 1    
    86   44  110 1    
    87   45   46 1    
    88   45   47 1    
    89   45  111 1    
    90   46  112 1    
    91   46  113 1    
    92   46  114 1    
    93   47   48 2    
    94   47   49 am   BACKBONE|DICT|INTERRES
    95   49   50 1    
    96   49  115 1    
    97   50   51 1    
    98   50   52 1    
    99   50  116 1    
   100   51  117 1    
   101   51  118 1    
   102   51  119 1    
   103   52   53 2    
   104   52   54 am   BACKBONE|DICT|INTERRES
   105   54   55 1    
   106   54  120 1    
   107   55   56 1    
   108   55   57 1    
   109   55  121 1    
   110   56  122 1    
   111   56  123 1    
   112   56  124 1    
   113   57   58 2    
   114   57   59 am   BACKBONE|DICT|INTERRES
   115   59   60 1    
   116   59  125 1    
   117   60   61 1    
   118   60   62 1    
   119   60  126 1    
   120   61  127 1    
   121   61  128 1    
   122   61  129 1    
   123   62   63 2    
   124   62   64 am   BACKBONE|DICT|INTERRES
   125   64   65 1    
   126   64  130 1    
   127   65   66 1    
   128   65   69 1    
   129   65  131 1    
   130   66   67 am   BACKBONE|DICT|INTERRES
   131   66   68 2    
   132   67  132 1    
   133   67  133 1    
   134   69   70 1    
   135   69  134 1    
   136   69  135 1    
   137   70   71 1    
   138   71  136 1    
   139   71  137 1    
@<TRIPOS>SUBSTRUCTURE
     1 UNK         1 GROUP             0       ****    0 ROOT    
