@<TRIPOS>MOLECULE
3R136
137   139    1
SMALL
USER_CHARGES


@<TRIPOS>ATOM
      1 CA         28.2225   20.3662   -3.6044 C.3       0 UNK        -0.1979 
      2 C          28.2781   21.6483   -2.7861 C.2       0 UNK         0.4864 
      3 O          27.2650   22.3428   -2.6714 O.2       0 UNK        -0.5359 
      4 N          29.4525   21.9645   -2.2166 N.am      1 UNK        -0.4318 
      5 CA         29.7250   23.1702   -1.4210 C.3       1 UNK         0.0824 
      6 C6         28.8573   23.2097   -0.1241 C.3       12 UNK        -0.0944 
      7 S7         29.5843   24.2090    1.2153 S.3       12 UNK        -0.2672 
      8 C8         30.2725   22.9016    2.2699 C.3       12 UNK         0.0333 
      9 C9         30.9587   23.4967    3.4859 C.ar      12 UNK        -0.0807 
     10 C10        32.3183   23.8161    3.4394 C.ar      12 UNK        -0.0894 
     11 C11        32.9585   24.3545    4.5592 C.ar      12 UNK        -0.0804 
     12 C12        32.2253   24.5794    5.7286 C.ar      12 UNK        -0.0824 
     13 C13        30.8626   24.2683    5.7834 C.ar      12 UNK        -0.0762 
     14 C14        30.2353   23.7227    4.6599 C.ar      12 UNK        -0.0782 
     15 C15        30.0766   24.5060    7.0635 C.3       12 UNK         0.0230 
     16 S16        29.3793   26.1861    7.1238 S.3       12 UNK        -0.2608 
     17 C17        27.8954   26.0422    6.0654 C.3       12 UNK        -0.0989 
     18 CA         28.0156   26.7585    4.6941 C.3       5 UNK         0.0716 
     19 N          26.8984   26.3863    3.8143 N.am      5 UNK        -0.4135 
     20 C          26.7764   26.7267    2.5239 C.2       4 UNK         0.5031 
     21 O          27.6252   27.3559    1.8879 O.2       4 UNK        -0.5229 
     22 CA         25.4371   26.3866    1.8624 C.3       4 UNK         0.0329 
     23 CB         24.4139   27.5087    2.1312 C.3       4 UNK        -0.2001 
     24 N          25.6327   26.2142    0.4252 N.am      4 UNK        -0.4303 
     25 C          24.7762   25.6100   -0.4097 C.2       3 UNK         0.5044 
     26 O          23.6934   25.1496   -0.0442 O.2       3 UNK        -0.5152 
     27 CA         25.1799   25.4385   -1.8890 C.3       3 UNK         0.0319 
     28 CB         24.2452   26.2237   -2.8324 C.3       3 UNK        -0.2001 
     29 N          26.5990   25.6961   -2.1682 N.am      3 UNK        -0.4354 
     30 C          27.2547   26.8672   -2.2271 C.2       2 UNK         0.4964 
     31 O          26.7008   27.9627   -2.1591 O.2       2 UNK        -0.5047 
     32 CA         28.7945   26.7973   -2.3080 C.3       2 UNK         0.0288 
     33 CB         29.4588   28.0049   -1.6242 C.3       2 UNK        -0.2113 
     34 N          29.2750   25.5740   -1.6624 N.am      2 UNK        -0.4145 
     35 C          29.6162   24.4465   -2.2945 C.2       1 UNK         0.5006 
     36 O          29.8036   24.3831   -3.5128 O.2       1 UNK        -0.5103 
     37 C          28.1298   28.2930    4.8544 C.2       5 UNK         0.5055 
     38 O          29.2382   28.8259    4.8699 O.2       5 UNK        -0.5220 
     39 N          26.9784   28.9796    4.9290 N.am      6 UNK        -0.4450 
     40 CA         26.8840   30.4407    5.0008 C.3       6 UNK         0.0367 
     41 CB         25.4403   30.8396    5.3469 C.3       6 UNK        -0.1929 
     42 C          27.3412   31.1472    3.7113 C.2       6 UNK         0.5070 
     43 O          27.8414   32.2696    3.7856 O.2       6 UNK        -0.5237 
     44 N          27.1646   30.4854    2.5590 N.am      7 UNK        -0.4739 
     45 CA         27.6324   30.9634    1.2571 C.3       7 UNK         0.0276 
     46 CB         26.8094   30.3028    0.1423 C.3       7 UNK        -0.1927 
     47 C          29.1350   30.7084    1.0595 C.2       7 UNK         0.5013 
     48 O          29.8089   31.5280    0.4333 O.2       7 UNK        -0.5193 
     49 N          29.6486   29.6060    1.6245 N.am      8 UNK        -0.4253 
     50 CA         31.0640   29.2261    1.6387 C.3       8 UNK         0.0242 
     51 CB         31.1725   27.7154    1.9244 C.3       8 UNK        -0.2000 
     52 C          31.8767   30.0740    2.6390 C.2       8 UNK         0.4948 
     53 O          32.5112   29.5288    3.5420 O.2       8 UNK        -0.5275 
     54 N          31.8560   31.4023    2.4544 N.am      9 UNK        -0.4246 
     55 CA         32.4496   32.4155    3.3370 C.3       9 UNK         0.0261 
     56 CB         32.1656   33.8127    2.7631 C.3       9 UNK        -0.1959 
     57 C          33.9544   32.2410    3.6130 C.2       9 UNK         0.5033 
     58 O          34.4189   32.6358    4.6837 O.2       9 UNK        -0.5390 
     59 N          34.6785   31.6128    2.6754 N.am      10 UNK        -0.4215 
     60 CA         36.0824   31.2137    2.8132 C.3       10 UNK         0.0240 
     61 CB         36.5717   30.6267    1.4791 C.3       10 UNK        -0.1982 
     62 C          36.3432   30.2210    3.9644 C.2       10 UNK         0.4970 
     63 O          37.4628   30.1890    4.4771 O.2       10 UNK        -0.4916 
     64 N          35.3211   29.4497    4.3599 N.am      11 UNK        -0.4279 
     65 CA         35.3492   28.5560    5.5264 C.3       11 UNK         0.1003 
     66 C          35.1284   29.2887    6.8835 C.2       11 UNK         0.5709 
     67 N          34.8409   30.5862    6.9163 N.am      11 UNK        -0.7358 
     68 O          35.2388   28.6671    7.9379 O.2       11 UNK        -0.4999 
     69 C69        34.3658   27.3675    5.3578 C.3       12 UNK        -0.0954 
     70 S70        34.7428   26.3592    3.8831 S.3       12 UNK        -0.2268 
     71 C71        34.4448   24.6755    4.5025 C.3       12 UNK         0.0203 
     72 H72        27.9557   20.5931   -4.6364 H         1 UNK         0.0888 
     73 H73        29.1787   19.8417   -3.6079 H         1 UNK         0.0888 
     74 H74        27.4679   19.6933   -3.1966 H         1 UNK         0.0888 
     75 H75        30.2521   21.3678   -2.3801 H         1 UNK         0.3017 
     76 H76        30.7739   23.0955   -1.1286 H         1 UNK         0.0873 
     77 H77        27.8490   23.5754   -0.3272 H         1 UNK         0.0745 
     78 H78        28.7146   22.1958    0.2536 H         1 UNK         0.0745 
     79 H79        29.4747   22.2263    2.5832 H         1 UNK         0.0705 
     80 H80        30.9789   22.3025    1.6929 H         1 UNK         0.0705 
     81 H81        32.8792   23.6460    2.5305 H         1 UNK         0.1334 
     82 H82        32.7142   24.9973    6.5978 H         1 UNK         0.1417 
     83 H83        29.1831   23.4762    4.6952 H         1 UNK         0.1562 
     84 H84        30.7331   24.3727    7.9248 H         1 UNK         0.0748 
     85 H85        29.2842   23.7645    7.1757 H         1 UNK         0.0748 
     86 H86        27.0435   26.4310    6.6267 H         1 UNK         0.0940 
     87 H87        27.6793   24.9844    5.9118 H         1 UNK         0.0940 
     88 H88        28.9304   26.4129    4.2070 H         1 UNK         0.0703 
     89 H89        26.1446   25.8725    4.2475 H         1 UNK         0.3081 
     90 H90        25.0713   25.4466    2.2812 H         1 UNK         0.0719 
     91 H91        24.7296   28.4550    1.6903 H         1 UNK         0.0809 
     92 H92        23.4348   27.2635    1.7197 H         1 UNK         0.0809 
     93 H93        24.2754   27.6736    3.2002 H         1 UNK         0.0809 
     94 H94        26.5073   26.5796    0.0721 H         1 UNK         0.2990 
     95 H95        25.0407   24.3789   -2.1101 H         1 UNK         0.0690 
     96 H96        24.5300   26.0917   -3.8762 H         1 UNK         0.0788 
     97 H97        24.2450   27.2918   -2.6140 H         1 UNK         0.0788 
     98 H98        23.2156   25.8781   -2.7314 H         1 UNK         0.0788 
     99 H99        27.1529   24.8550   -2.2650 H         1 UNK         0.2993 
    100 H100       29.0662   26.8070   -3.3657 H         1 UNK         0.0949 
    101 H101       29.1857   28.9398   -2.1153 H         1 UNK         0.0767 
    102 H102       29.1507   28.0807   -0.5822 H         1 UNK         0.0767 
    103 H103       30.5461   27.9307   -1.6492 H         1 UNK         0.0767 
    104 H104       29.1811   25.5301   -0.6541 H         1 UNK         0.3013 
    105 H105       26.1089   28.4676    4.9271 H         1 UNK         0.3121 
    106 H106       27.5363   30.7800    5.8086 H         1 UNK         0.0774 
    107 H107       25.3461   31.9232    5.4320 H         1 UNK         0.0815 
    108 H108       24.7346   30.5112    4.5827 H         1 UNK         0.0815 
    109 H109       25.1275   30.4143    6.3006 H         1 UNK         0.0815 
    110 H110       26.7797   29.5527    2.5886 H         1 UNK         0.2987 
    111 H111       27.4725   32.0426    1.1983 H         1 UNK         0.0949 
    112 H112       26.8891   29.2169    0.1714 H         1 UNK         0.0806 
    113 H113       25.7537   30.5622    0.2196 H         1 UNK         0.0806 
    114 H114       27.1513   30.6254   -0.8422 H         1 UNK         0.0806 
    115 H115       29.0138   28.9747    2.0993 H         1 UNK         0.3010 
    116 H116       31.4804   29.4073    0.6457 H         1 UNK         0.0829 
    117 H117       30.6192   27.1288    1.1917 H         1 UNK         0.0813 
    118 H118       32.2105   27.3816    1.8902 H         1 UNK         0.0813 
    119 H119       30.7859   27.4633    2.9125 H         1 UNK         0.0813 
    120 H120       31.2859   31.7438    1.6852 H         1 UNK         0.3038 
    121 H121       31.9396   32.3324    4.2991 H         1 UNK         0.0769 
    122 H122       32.6147   33.9430    1.7775 H         1 UNK         0.0811 
    123 H123       32.5687   34.5919    3.4118 H         1 UNK         0.0811 
    124 H124       31.0941   33.9930    2.6710 H         1 UNK         0.0811 
    125 H125       34.2037   31.3229    1.8331 H         1 UNK         0.3204 
    126 H126       36.6606   32.1154    3.0256 H         1 UNK         0.0748 
    127 H127       36.4751   31.3480    0.6672 H         1 UNK         0.0771 
    128 H128       37.6249   30.3481    1.5382 H         1 UNK         0.0771 
    129 H129       36.0132   29.7309    1.2037 H         1 UNK         0.0771 
    130 H130       34.4132   29.5408    3.9119 H         1 UNK         0.2980 
    131 H131       36.3517   28.1290    5.5923 H         1 UNK         0.0545 
    132 H132       34.7111   31.0346    7.8088 H         1 UNK         0.3459 
    133 H133       34.7544   31.1293    6.0652 H         1 UNK         0.3459 
    134 H134       33.3354   27.7189    5.2853 H         1 UNK         0.0616 
    135 H135       34.4053   26.7254    6.2387 H         1 UNK         0.0616 
    136 H136       34.9469   23.9691    3.8398 H         1 UNK         0.0634 
    137 H137       34.9068   24.5481    5.4826 H         1 UNK         0.0634 
@<TRIPOS>BOND
     1    1    2 1    
     2    1   72 1    
     3    1   73 1    
     4    1   74 1    
     5    2    3 2    
     6    2    4 am   BACKBONE|DICT|INTERRES
     7    4    5 1    
     8    4   75 1    
     9    5    6 1    
    10    5   35 1    
    11    5   76 1    
    12    6    7 1    
    13    6   77 1    
    14    6   78 1    
    15    7    8 1    
    16    8    9 1    
    17    8   79 1    
    18    8   80 1    
    19    9   10 ar   
    20    9   14 ar   
    21   10   11 ar   
    22   10   81 1    
    23   11   12 ar   
    24   11   71 1    
    25   12   13 ar   
    26   12   82 1    
    27   13   14 ar   
    28   13   15 1    
    29   14   83 1    
    30   15   16 1    
    31   15   84 1    
    32   15   85 1    
    33   16   17 1    
    34   17   18 1    
    35   17   86 1    
    36   17   87 1    
    37   18   19 1    
    38   18   37 1    
    39   18   88 1    
    40   19   20 am   BACKBONE|DICT|INTERRES
    41   19   89 1    
    42   20   21 2    
    43   20   22 1    
    44   22   23 1    
    45   22   24 1    
    46   22   90 1    
    47   23   91 1    
    48   23   92 1    
    49   23   93 1    
    50   24   25 am   BACKBONE|DICT|INTERRES
    51   24   94 1    
    52   25   26 2    
    53   25   27 1    
    54   27   28 1    
    55   27   29 1    
    56   27   95 1    
    57   28   96 1    
    58   28   97 1    
    59   28   98 1    
    60   29   30 am   BACKBONE|DICT|INTERRES
    61   29   99 1    
    62   30   31 2    
    63   30   32 1    
    64   32   33 1    
    65   32   34 1    
    66   32  100 1    
    67   33  101 1    
    68   33  102 1    
    69   33  103 1    
    70   34   35 am   BACKBONE|DICT|INTERRES
    71   34  104 1    
    72   35   36 2    
    73   37   38 2    
    74   37   39 am   BACKBONE|DICT|INTERRES
    75   39   40 1    
    76   39  105 1    
    77   40   41 1    
    78   40   42 1    
    79   40  106 1    
    80   41  107 1    
    81   41  108 1    
    82   41  109 1    
    83   42   43 2    
    84   42   44 am   BACKBONE|DICT|INTERRES
    85   44   45 1    
    86   44  110 1    
    87   45   46 1    
    88   45   47 1    
    89   45  111 1    
    90   46  112 1    
    91   46  113 1    
    92   46  114 1    
    93   47   48 2    
    94   47   49 am   BACKBONE|DICT|INTERRES
    95   49   50 1    
    96   49  115 1    
    97   50   51 1    
    98   50   52 1    
    99   50  116 1    
   100   51  117 1    
   101   51  118 1    
   102   51  119 1    
   103   52   53 2    
   104   52   54 am   BACKBONE|DICT|INTERRES
   105   54   55 1    
   106   54  120 1    
   107   55   56 1    
   108   55   57 1    
   109   55  121 1    
   110   56  122 1    
   111   56  123 1    
   112   56  124 1    
   113   57   58 2    
   114   57   59 am   BACKBONE|DICT|INTERRES
   115   59   60 1    
   116   59  125 1    
   117   60   61 1    
   118   60   62 1    
   119   60  126 1    
   120   61  127 1    
   121   61  128 1    
   122   61  129 1    
   123   62   63 2    
   124   62   64 am   BACKBONE|DICT|INTERRES
   125   64   65 1    
   126   64  130 1    
   127   65   66 1    
   128   65   69 1    
   129   65  131 1    
   130   66   67 am   BACKBONE|DICT|INTERRES
   131   66   68 2    
   132   67  132 1    
   133   67  133 1    
   134   69   70 1    
   135   69  134 1    
   136   69  135 1    
   137   70   71 1    
   138   71  136 1    
   139   71  137 1    
@<TRIPOS>SUBSTRUCTURE
     1 UNK         1 GROUP             0       ****    0 ROOT    
