@<TRIPOS>MOLECULE
3R136
137   139    1
SMALL
USER_CHARGES


@<TRIPOS>ATOM
      1 CA         28.3835   22.1675   -1.6555 C.3       0 UNK        -0.1979 
      2 C          28.1619   23.1588   -0.5241 C.2       0 UNK         0.4864 
      3 O          27.9568   24.3442   -0.7890 O.2       0 UNK        -0.5359 
      4 N          28.2045   22.6848    0.7279 N.am      1 UNK        -0.4318 
      5 CA         27.9716   23.4709    1.9430 C.3       1 UNK         0.0824 
      6 C6         28.3087   22.6414    3.2087 C.3       12 UNK        -0.0944 
      7 S7         28.6713   23.6772    4.6672 S.3       12 UNK        -0.2672 
      8 C8         30.4549   23.3943    4.9134 C.3       12 UNK         0.0333 
      9 C9         31.2990   24.3352    4.0663 C.ar      12 UNK        -0.0807 
     10 C10        31.8457   25.4885    4.6367 C.ar      12 UNK        -0.0894 
     11 C11        32.6182   26.3632    3.8682 C.ar      12 UNK        -0.0804 
     12 C12        32.8543   26.0708    2.5225 C.ar      12 UNK        -0.0824 
     13 C13        32.2904   24.9352    1.9315 C.ar      12 UNK        -0.0762 
     14 C14        31.5301   24.0612    2.7148 C.ar      12 UNK        -0.0782 
     15 C15        32.4577   24.6705    0.4372 C.3       12 UNK         0.0230 
     16 S16        31.9845   26.0945   -0.6098 S.3       12 UNK        -0.2608 
     17 C17        30.4839   26.6994    0.2305 C.3       12 UNK        -0.0989 
     18 CA         29.5932   27.5758   -0.6756 C.3       5 UNK         0.0716 
     19 N          28.9570   26.7844   -1.7210 N.am      5 UNK        -0.4135 
     20 C          28.6324   27.2270   -2.9399 C.2       4 UNK         0.5031 
     21 O          28.9673   28.3215   -3.3950 O.2       4 UNK        -0.5229 
     22 CA         27.7443   26.2935   -3.7742 C.3       4 UNK         0.0329 
     23 CB         28.5645   25.1311   -4.3580 C.3       4 UNK        -0.2001 
     24 N          26.6530   25.7639   -2.9548 N.am      4 UNK        -0.4303 
     25 C          25.5044   26.4083   -2.7139 C.2       3 UNK         0.5044 
     26 O          25.1939   27.4836   -3.2275 O.2       3 UNK        -0.5152 
     27 CA         24.5521   25.7494   -1.7124 C.3       3 UNK         0.0319 
     28 CB         24.3363   24.2470   -1.9917 C.3       3 UNK        -0.2001 
     29 N          25.0672   25.9551   -0.3626 N.am      3 UNK        -0.4354 
     30 C          24.3399   25.9108    0.7595 C.2       2 UNK         0.4964 
     31 O          23.1218   25.7212    0.7803 O.2       2 UNK        -0.5047 
     32 CA         25.1206   26.0944    2.0767 C.3       2 UNK         0.0288 
     33 CB         24.2798   25.7896    3.3357 C.3       2 UNK        -0.2113 
     34 N          26.3782   25.3348    2.0863 N.am      2 UNK        -0.4145 
     35 C          26.5237   24.0047    1.9790 C.2       1 UNK         0.5006 
     36 O          25.5886   23.2032    1.9031 O.2       1 UNK        -0.5103 
     37 C          28.4906   28.2273    0.1742 C.2       5 UNK         0.5055 
     38 O          27.4298   27.6268    0.3639 O.2       5 UNK        -0.5220 
     39 N          28.7875   29.4096    0.7279 N.am      6 UNK        -0.4450 
     40 CA         27.8961   30.1570    1.6222 C.3       6 UNK         0.0367 
     41 CB         28.3535   31.6250    1.6665 C.3       6 UNK        -0.1929 
     42 C          27.8139   29.5847    3.0510 C.2       6 UNK         0.5070 
     43 O          26.9452   30.0112    3.8109 O.2       6 UNK        -0.5237 
     44 N          28.7333   28.6757    3.4114 N.am      7 UNK        -0.4739 
     45 CA         28.9095   27.9898    4.7040 C.3       7 UNK         0.0276 
     46 CB         27.6541   27.1929    5.1058 C.3       7 UNK        -0.1927 
     47 C          29.3754   28.8860    5.8667 C.2       7 UNK         0.5013 
     48 O          30.1324   28.4148    6.7170 O.2       7 UNK        -0.5193 
     49 N          28.9400   30.1508    5.8919 N.am      8 UNK        -0.4253 
     50 CA         29.2782   31.1715    6.8867 C.3       8 UNK         0.0242 
     51 CB         28.2293   32.2971    6.8083 C.3       8 UNK        -0.2000 
     52 C          30.7222   31.6939    6.7307 C.2       8 UNK         0.4948 
     53 O          30.9209   32.8752    6.4377 O.2       8 UNK        -0.5275 
     54 N          31.6946   30.7946    6.9368 N.am      9 UNK        -0.4246 
     55 CA         33.1455   30.9851    6.8151 C.3       9 UNK         0.0261 
     56 CB         33.6501   32.0286    7.8385 C.3       9 UNK        -0.1959 
     57 C          33.5936   31.2828    5.3678 C.2       9 UNK         0.5033 
     58 O          32.8312   31.0480    4.4269 O.2       9 UNK        -0.5390 
     59 N          34.8465   31.7444    5.2193 N.am      10 UNK        -0.4215 
     60 CA         35.5455   32.0360    3.9574 C.3       10 UNK         0.0240 
     61 CB         34.9178   33.2598    3.2554 C.3       10 UNK        -0.1982 
     62 C          35.6522   30.8011    3.0385 C.2       10 UNK         0.4970 
     63 O          35.3995   30.8961    1.8360 O.2       10 UNK        -0.4916 
     64 N          36.0018   29.6559    3.6387 N.am      11 UNK        -0.4279 
     65 CA         36.0190   28.3354    2.9891 C.3       11 UNK         0.1003 
     66 C          37.1896   28.1004    1.9905 C.2       11 UNK         0.5709 
     67 N          38.1981   28.9619    1.9301 N.am      11 UNK        -0.7358 
     68 O          37.1780   27.1184    1.2523 O.2       11 UNK        -0.4999 
     69 C69        35.9269   27.1744    4.0212 C.3       12 UNK        -0.0954 
     70 S70        34.7132   27.4088    5.3696 S.3       12 UNK        -0.2268 
     71 C71        33.1453   27.6510    4.4802 C.3       12 UNK         0.0203 
     72 H72        28.4444   21.1418   -1.2925 H         1 UNK         0.0888 
     73 H73        27.5642   22.2248   -2.3714 H         1 UNK         0.0888 
     74 H74        29.3112   22.3988   -2.1779 H         1 UNK         0.0888 
     75 H75        28.3389   21.6943    0.8704 H         1 UNK         0.3017 
     76 H76        28.6558   24.3200    1.8991 H         1 UNK         0.0873 
     77 H77        29.1699   22.0002    3.0185 H         1 UNK         0.0745 
     78 H78        27.4970   21.9558    3.4607 H         1 UNK         0.0745 
     79 H79        30.7122   22.3558    4.7008 H         1 UNK         0.0705 
     80 H80        30.6811   23.5445    5.9702 H         1 UNK         0.0705 
     81 H81        31.6576   25.7171    5.6774 H         1 UNK         0.1334 
     82 H82        33.4359   26.7504    1.9161 H         1 UNK         0.1417 
     83 H83        31.0995   23.1766    2.2672 H         1 UNK         0.1562 
     84 H84        31.8580   23.8119    0.1308 H         1 UNK         0.0748 
     85 H85        33.4969   24.4095    0.2339 H         1 UNK         0.0748 
     86 H86        30.8113   27.2659    1.1037 H         1 UNK         0.0940 
     87 H87        29.9201   25.8459    0.6103 H         1 UNK         0.0940 
     88 H88        30.2035   28.3622   -1.1254 H         1 UNK         0.0703 
     89 H89        28.5946   25.8818   -1.4175 H         1 UNK         0.3081 
     90 H90        27.3278   26.8674   -4.6050 H         1 UNK         0.0719 
     91 H91        29.3673   25.5046   -4.9951 H         1 UNK         0.0809 
     92 H92        29.0246   24.5244   -3.5775 H         1 UNK         0.0809 
     93 H93        27.9435   24.4762   -4.9693 H         1 UNK         0.0809 
     94 H94        26.8601   24.9365   -2.4069 H         1 UNK         0.2990 
     95 H95        23.5895   26.2573   -1.8037 H         1 UNK         0.0690 
     96 H96        23.5288   23.8466   -1.3785 H         1 UNK         0.0788 
     97 H97        25.2287   23.6574   -1.7807 H         1 UNK         0.0788 
     98 H98        24.0636   24.0762   -3.0340 H         1 UNK         0.0788 
     99 H99        26.0504   26.2007   -0.2848 H         1 UNK         0.2993 
    100 H100       25.3981   27.1491    2.1185 H         1 UNK         0.0949 
    101 H101       24.8573   25.9464    4.2465 H         1 UNK         0.0767 
    102 H102       23.4082   26.4431    3.3892 H         1 UNK         0.0767 
    103 H103       23.9156   24.7619    3.3422 H         1 UNK         0.0767 
    104 H104       27.2107   25.9074    2.0646 H         1 UNK         0.3013 
    105 H105       29.6820   29.8345    0.5263 H         1 UNK         0.3121 
    106 H106       26.8867   30.1262    1.2059 H         1 UNK         0.0774 
    107 H107       27.6859   32.2245    2.2873 H         1 UNK         0.0815 
    108 H108       29.3578   31.7240    2.0807 H         1 UNK         0.0815 
    109 H109       28.3527   32.0720    0.6722 H         1 UNK         0.0815 
    110 H110       29.4331   28.4536    2.7193 H         1 UNK         0.2987 
    111 H111       29.7086   27.2665    4.5409 H         1 UNK         0.0949 
    112 H112       27.8349   26.6185    6.0154 H         1 UNK         0.0806 
    113 H113       27.3737   26.4818    4.3325 H         1 UNK         0.0806 
    114 H114       26.7970   27.8387    5.2974 H         1 UNK         0.0806 
    115 H115       28.2856   30.4186    5.1633 H         1 UNK         0.3010 
    116 H116       29.2055   30.7201    7.8786 H         1 UNK         0.0829 
    117 H117       28.2292   32.7807    5.8305 H         1 UNK         0.0813 
    118 H118       27.2245   31.9168    6.9935 H         1 UNK         0.0813 
    119 H119       28.4253   33.0678    7.5551 H         1 UNK         0.0813 
    120 H120       31.3882   29.8365    7.0857 H         1 UNK         0.3038 
    121 H121       33.5888   30.0227    7.0756 H         1 UNK         0.0769 
    122 H122       34.7352   32.0011    7.9403 H         1 UNK         0.0811 
    123 H123       33.2385   31.8390    8.8300 H         1 UNK         0.0811 
    124 H124       33.3721   33.0441    7.5535 H         1 UNK         0.0811 
    125 H125       35.3905   31.8917    6.0583 H         1 UNK         0.3204 
    126 H126       36.5691   32.3026    4.2249 H         1 UNK         0.0748 
    127 H127       35.4993   33.5499    2.3794 H         1 UNK         0.0771 
    128 H128       33.9010   33.0559    2.9176 H         1 UNK         0.0771 
    129 H129       34.8824   34.1230    3.9200 H         1 UNK         0.0771 
    130 H130       36.1974   29.6606    4.6282 H         1 UNK         0.2980 
    131 H131       35.1220   28.2875    2.3713 H         1 UNK         0.0545 
    132 H132       38.2151   29.7717    2.5285 H         1 UNK         0.3459 
    133 H133       38.9477   28.7998    1.2762 H         1 UNK         0.3459 
    134 H134       35.6929   26.2363    3.5147 H         1 UNK         0.0616 
    135 H135       36.8974   27.0227    4.4972 H         1 UNK         0.0616 
    136 H136       33.2559   28.4231    3.7189 H         1 UNK         0.0634 
    137 H137       32.4118   28.0418    5.1861 H         1 UNK         0.0634 
@<TRIPOS>BOND
     1    1    2 1    
     2    1   72 1    
     3    1   73 1    
     4    1   74 1    
     5    2    3 2    
     6    2    4 am   BACKBONE|DICT|INTERRES
     7    4    5 1    
     8    4   75 1    
     9    5    6 1    
    10    5   35 1    
    11    5   76 1    
    12    6    7 1    
    13    6   77 1    
    14    6   78 1    
    15    7    8 1    
    16    8    9 1    
    17    8   79 1    
    18    8   80 1    
    19    9   10 ar   
    20    9   14 ar   
    21   10   11 ar   
    22   10   81 1    
    23   11   12 ar   
    24   11   71 1    
    25   12   13 ar   
    26   12   82 1    
    27   13   14 ar   
    28   13   15 1    
    29   14   83 1    
    30   15   16 1    
    31   15   84 1    
    32   15   85 1    
    33   16   17 1    
    34   17   18 1    
    35   17   86 1    
    36   17   87 1    
    37   18   19 1    
    38   18   37 1    
    39   18   88 1    
    40   19   20 am   BACKBONE|DICT|INTERRES
    41   19   89 1    
    42   20   21 2    
    43   20   22 1    
    44   22   23 1    
    45   22   24 1    
    46   22   90 1    
    47   23   91 1    
    48   23   92 1    
    49   23   93 1    
    50   24   25 am   BACKBONE|DICT|INTERRES
    51   24   94 1    
    52   25   26 2    
    53   25   27 1    
    54   27   28 1    
    55   27   29 1    
    56   27   95 1    
    57   28   96 1    
    58   28   97 1    
    59   28   98 1    
    60   29   30 am   BACKBONE|DICT|INTERRES
    61   29   99 1    
    62   30   31 2    
    63   30   32 1    
    64   32   33 1    
    65   32   34 1    
    66   32  100 1    
    67   33  101 1    
    68   33  102 1    
    69   33  103 1    
    70   34   35 am   BACKBONE|DICT|INTERRES
    71   34  104 1    
    72   35   36 2    
    73   37   38 2    
    74   37   39 am   BACKBONE|DICT|INTERRES
    75   39   40 1    
    76   39  105 1    
    77   40   41 1    
    78   40   42 1    
    79   40  106 1    
    80   41  107 1    
    81   41  108 1    
    82   41  109 1    
    83   42   43 2    
    84   42   44 am   BACKBONE|DICT|INTERRES
    85   44   45 1    
    86   44  110 1    
    87   45   46 1    
    88   45   47 1    
    89   45  111 1    
    90   46  112 1    
    91   46  113 1    
    92   46  114 1    
    93   47   48 2    
    94   47   49 am   BACKBONE|DICT|INTERRES
    95   49   50 1    
    96   49  115 1    
    97   50   51 1    
    98   50   52 1    
    99   50  116 1    
   100   51  117 1    
   101   51  118 1    
   102   51  119 1    
   103   52   53 2    
   104   52   54 am   BACKBONE|DICT|INTERRES
   105   54   55 1    
   106   54  120 1    
   107   55   56 1    
   108   55   57 1    
   109   55  121 1    
   110   56  122 1    
   111   56  123 1    
   112   56  124 1    
   113   57   58 2    
   114   57   59 am   BACKBONE|DICT|INTERRES
   115   59   60 1    
   116   59  125 1    
   117   60   61 1    
   118   60   62 1    
   119   60  126 1    
   120   61  127 1    
   121   61  128 1    
   122   61  129 1    
   123   62   63 2    
   124   62   64 am   BACKBONE|DICT|INTERRES
   125   64   65 1    
   126   64  130 1    
   127   65   66 1    
   128   65   69 1    
   129   65  131 1    
   130   66   67 am   BACKBONE|DICT|INTERRES
   131   66   68 2    
   132   67  132 1    
   133   67  133 1    
   134   69   70 1    
   135   69  134 1    
   136   69  135 1    
   137   70   71 1    
   138   71  136 1    
   139   71  137 1    
@<TRIPOS>SUBSTRUCTURE
     1 UNK         1 GROUP             0       ****    0 ROOT    
