@<TRIPOS>MOLECULE
3R136
137   139    1
SMALL
USER_CHARGES


@<TRIPOS>ATOM
      1 CA         30.5373   21.9471   -3.2957 C.3       0 UNK        -0.1979 
      2 C          29.5090   22.8012   -2.5699 C.2       0 UNK         0.4864 
      3 O          28.9553   23.7300   -3.1616 O.2       0 UNK        -0.5359 
      4 N          29.2391   22.4922   -1.2950 N.am      1 UNK        -0.4318 
      5 CA         28.2989   23.2080   -0.4226 C.3       1 UNK         0.0824 
      6 C6         28.6510   23.0212    1.0766 C.3       12 UNK        -0.0944 
      7 S7         30.3174   23.6481    1.4602 S.3       12 UNK        -0.2672 
      8 C8         30.4257   23.3487    3.2510 C.3       12 UNK         0.0333 
      9 C9         30.7644   24.6332    3.9903 C.ar      12 UNK        -0.0807 
     10 C10        32.0547   25.1669    3.9040 C.ar      12 UNK        -0.0894 
     11 C11        32.3737   26.3574    4.5616 C.ar      12 UNK        -0.0804 
     12 C12        31.3938   27.0126    5.3096 C.ar      12 UNK        -0.0824 
     13 C13        30.1026   26.4881    5.4089 C.ar      12 UNK        -0.0762 
     14 C14        29.7946   25.2906    4.7550 C.ar      12 UNK        -0.0782 
     15 C15        29.0473   27.2328    6.2177 C.3       12 UNK         0.0230 
     16 S16        27.6663   27.8551    5.1997 S.3       12 UNK        -0.2608 
     17 C17        28.5134   28.5936    3.7597 C.3       12 UNK        -0.0989 
     18 CA         28.2927   27.7186    2.5017 C.3       5 UNK         0.0716 
     19 N          26.8960   27.7674    2.0621 N.am      5 UNK        -0.4135 
     20 C          26.3318   26.8944    1.2232 C.2       4 UNK         0.5031 
     21 O          26.9137   25.9185    0.7438 O.2       4 UNK        -0.5229 
     22 CA         24.8698   27.1533    0.8495 C.3       4 UNK         0.0329 
     23 CB         24.7690   28.1302   -0.3364 C.3       4 UNK        -0.2001 
     24 N          24.2706   25.8714    0.4996 N.am      4 UNK        -0.4303 
     25 C          22.9675   25.5746    0.4946 C.2       3 UNK         0.5044 
     26 O          22.0843   26.3877    0.7737 O.2       3 UNK        -0.5152 
     27 CA         22.5897   24.1185    0.1469 C.3       3 UNK         0.0319 
     28 CB         21.1860   24.0016   -0.4856 C.3       3 UNK        -0.2001 
     29 N          23.5948   23.4179   -0.6671 N.am      3 UNK        -0.4354 
     30 C          23.9857   23.7110   -1.9161 C.2       2 UNK         0.4964 
     31 O          23.5482   24.6561   -2.5745 O.2       2 UNK        -0.5047 
     32 CA         25.0740   22.7982   -2.5110 C.3       2 UNK         0.0288 
     33 CB         25.1392   22.8846   -4.0473 C.3       2 UNK        -0.2113 
     34 N          26.3973   23.1090   -1.9688 N.am      2 UNK        -0.4145 
     35 C          26.8403   22.8089   -0.7410 C.2       1 UNK         0.5006 
     36 O          26.1561   22.2152    0.0968 O.2       1 UNK        -0.5103 
     37 C          29.2311   28.1363    1.3563 C.2       5 UNK         0.5055 
     38 O          28.9130   29.0867    0.6358 O.2       5 UNK        -0.5220 
     39 N          30.3673   27.4339    1.2253 N.am      6 UNK        -0.4450 
     40 CA         31.3879   27.6224    0.1874 C.3       6 UNK         0.0367 
     41 CB         32.5541   26.6512    0.4351 C.3       6 UNK        -0.1929 
     42 C          31.8940   29.0723    0.1184 C.2       6 UNK         0.5070 
     43 O          32.5889   29.5170    1.0331 O.2       6 UNK        -0.5237 
     44 N          31.4676   29.7961   -0.9284 N.am      7 UNK        -0.4739 
     45 CA         31.7062   31.2262   -1.1850 C.3       7 UNK         0.0276 
     46 CB         33.1910   31.4604   -1.5361 C.3       7 UNK        -0.1927 
     47 C          31.2252   32.1651   -0.0546 C.2       7 UNK         0.5013 
     48 O          31.6967   33.3005    0.0269 O.2       7 UNK        -0.5193 
     49 N          30.3275   31.6664    0.8123 N.am      8 UNK        -0.4253 
     50 CA         29.8937   32.2517    2.0870 C.3       8 UNK         0.0242 
     51 CB         29.0233   33.5027    1.8430 C.3       8 UNK        -0.2000 
     52 C          31.0513   32.5125    3.0799 C.2       8 UNK         0.4948 
     53 O          30.9309   33.3993    3.9279 O.2       8 UNK        -0.5275 
     54 N          32.1560   31.7604    2.9584 N.am      9 UNK        -0.4246 
     55 CA         33.3586   31.9231    3.7742 C.3       9 UNK         0.0261 
     56 CB         34.5446   31.2525    3.0612 C.3       9 UNK        -0.1959 
     57 C          33.1832   31.3251    5.1764 C.2       9 UNK         0.5033 
     58 O          32.5276   30.2925    5.3300 O.2       9 UNK        -0.5390 
     59 N          33.8371   31.9453    6.1642 N.am      10 UNK        -0.4215 
     60 CA         33.9606   31.4375    7.5297 C.3       10 UNK         0.0240 
     61 CB         33.9419   32.6244    8.5119 C.3       10 UNK        -0.1982 
     62 C          35.2472   30.6017    7.6315 C.2       10 UNK         0.4970 
     63 O          36.2298   31.0517    8.2236 O.2       10 UNK        -0.4916 
     64 N          35.2333   29.4210    7.0011 N.am      11 UNK        -0.4279 
     65 CA         36.3745   28.4924    6.9322 C.3       11 UNK         0.1003 
     66 C          36.7476   27.7826    8.2692 C.2       11 UNK         0.5709 
     67 N          35.9209   27.8363    9.3072 N.am      11 UNK        -0.7358 
     68 O          37.8164   27.1840    8.3682 O.2       11 UNK        -0.4999 
     69 C69        36.2292   27.4922    5.7534 C.3       12 UNK        -0.0954 
     70 S70        34.7718   26.4017    5.8959 S.3       12 UNK        -0.2268 
     71 C71        33.7740   26.9403    4.4767 C.3       12 UNK         0.0203 
     72 H72        31.3631   22.5683   -3.6412 H         1 UNK         0.0888 
     73 H73        30.9457   21.1669   -2.6534 H         1 UNK         0.0888 
     74 H74        30.0829   21.4695   -4.1633 H         1 UNK         0.0888 
     75 H75        29.7161   21.7133   -0.8640 H         1 UNK         0.3017 
     76 H76        28.3832   24.2745   -0.6427 H         1 UNK         0.0873 
     77 H77        28.5937   21.9692    1.3624 H         1 UNK         0.0745 
     78 H78        27.9369   23.5564    1.7058 H         1 UNK         0.0745 
     79 H79        29.4922   22.9244    3.6240 H         1 UNK         0.0705 
     80 H80        31.1980   22.6020    3.4408 H         1 UNK         0.0705 
     81 H81        32.8082   24.6563    3.3195 H         1 UNK         0.1334 
     82 H82        31.6406   27.9353    5.8164 H         1 UNK         0.1417 
     83 H83        28.7938   24.8861    4.8260 H         1 UNK         0.1562 
     84 H84        29.4927   28.0772    6.7463 H         1 UNK         0.0748 
     85 H85        28.6492   26.5691    6.9863 H         1 UNK         0.0748 
     86 H86        29.5746   28.7241    3.9791 H         1 UNK         0.0940 
     87 H87        28.1210   29.5999    3.6046 H         1 UNK         0.0940 
     88 H88        28.5224   26.6807    2.7495 H         1 UNK         0.0703 
     89 H89        26.3549   28.5535    2.3893 H         1 UNK         0.3081 
     90 H90        24.3513   27.5666    1.7174 H         1 UNK         0.0719 
     91 H91        25.2411   29.0849   -0.1011 H         1 UNK         0.0809 
     92 H92        25.2608   27.7322   -1.2251 H         1 UNK         0.0809 
     93 H93        23.7305   28.3377   -0.5947 H         1 UNK         0.0809 
     94 H94        24.9471   25.1462    0.2952 H         1 UNK         0.2990 
     95 H95        22.5605   23.5888    1.1002 H         1 UNK         0.0690 
     96 H96        20.9353   22.9643   -0.7074 H         1 UNK         0.0788 
     97 H97        21.1101   24.5715   -1.4121 H         1 UNK         0.0788 
     98 H98        20.4185   24.3802    0.1906 H         1 UNK         0.0788 
     99 H99        24.0966   22.6719   -0.1960 H         1 UNK         0.2993 
    100 H100       24.8230   21.7680   -2.2479 H         1 UNK         0.0949 
    101 H101       25.4311   23.8800   -4.3853 H         1 UNK         0.0767 
    102 H102       25.8562   22.1708   -4.4537 H         1 UNK         0.0767 
    103 H103       24.1694   22.6587   -4.4929 H         1 UNK         0.0767 
    104 H104       27.0544   23.5663   -2.5944 H         1 UNK         0.3013 
    105 H105       30.5447   26.6860    1.8817 H         1 UNK         0.3121 
    106 H106       30.9326   27.3624   -0.7703 H         1 UNK         0.0774 
    107 H107       33.0034   26.8045    1.4165 H         1 UNK         0.0815 
    108 H108       32.2315   25.6130    0.3700 H         1 UNK         0.0815 
    109 H109       33.3412   26.7893   -0.3073 H         1 UNK         0.0815 
    110 H110       30.8513   29.3417   -1.5890 H         1 UNK         0.2987 
    111 H111       31.1110   31.4859   -2.0619 H         1 UNK         0.0949 
    112 H112       33.5168   30.8048   -2.3435 H         1 UNK         0.0806 
    113 H113       33.3612   32.4857   -1.8669 H         1 UNK         0.0806 
    114 H114       33.8406   31.2842   -0.6778 H         1 UNK         0.0806 
    115 H115       29.9749   30.7297    0.6291 H         1 UNK         0.3010 
    116 H116       29.2617   31.4999    2.5601 H         1 UNK         0.0829 
    117 H117       29.6061   34.3257    1.4282 H         1 UNK         0.0813 
    118 H118       28.5764   33.8576    2.7725 H         1 UNK         0.0813 
    119 H119       28.2060   33.2890    1.1543 H         1 UNK         0.0813 
    120 H120       32.1828   31.0183    2.2641 H         1 UNK         0.3038 
    121 H121       33.5690   32.9910    3.8651 H         1 UNK         0.0769 
    122 H122       34.6860   31.6576    2.0590 H         1 UNK         0.0811 
    123 H123       34.4000   30.1751    2.9674 H         1 UNK         0.0811 
    124 H124       35.4740   31.4090    3.6101 H         1 UNK         0.0811 
    125 H125       34.3870   32.7637    5.9425 H         1 UNK         0.3204 
    126 H126       33.1157   30.7894    7.7735 H         1 UNK         0.0748 
    127 H127       34.7550   33.3263    8.3212 H         1 UNK         0.0771 
    128 H128       33.0035   33.1754    8.4461 H         1 UNK         0.0771 
    129 H129       34.0427   32.2794    9.5419 H         1 UNK         0.0771 
    130 H130       34.3880   29.1260    6.5324 H         1 UNK         0.2980 
    131 H131       37.2465   29.1058    6.6973 H         1 UNK         0.0545 
    132 H132       36.1779   27.3779   10.1671 H         1 UNK         0.3459 
    133 H133       35.0403   28.3186    9.2346 H         1 UNK         0.3459 
    134 H134       36.1799   28.0424    4.8124 H         1 UNK         0.0616 
    135 H135       37.1180   26.8637    5.6737 H         1 UNK         0.0616 
    136 H136       34.2652   26.6316    3.5530 H         1 UNK         0.0634 
    137 H137       33.7204   28.0293    4.4510 H         1 UNK         0.0634 
@<TRIPOS>BOND
     1    1    2 1    
     2    1   72 1    
     3    1   73 1    
     4    1   74 1    
     5    2    3 2    
     6    2    4 am   BACKBONE|DICT|INTERRES
     7    4    5 1    
     8    4   75 1    
     9    5    6 1    
    10    5   35 1    
    11    5   76 1    
    12    6    7 1    
    13    6   77 1    
    14    6   78 1    
    15    7    8 1    
    16    8    9 1    
    17    8   79 1    
    18    8   80 1    
    19    9   10 ar   
    20    9   14 ar   
    21   10   11 ar   
    22   10   81 1    
    23   11   12 ar   
    24   11   71 1    
    25   12   13 ar   
    26   12   82 1    
    27   13   14 ar   
    28   13   15 1    
    29   14   83 1    
    30   15   16 1    
    31   15   84 1    
    32   15   85 1    
    33   16   17 1    
    34   17   18 1    
    35   17   86 1    
    36   17   87 1    
    37   18   19 1    
    38   18   37 1    
    39   18   88 1    
    40   19   20 am   BACKBONE|DICT|INTERRES
    41   19   89 1    
    42   20   21 2    
    43   20   22 1    
    44   22   23 1    
    45   22   24 1    
    46   22   90 1    
    47   23   91 1    
    48   23   92 1    
    49   23   93 1    
    50   24   25 am   BACKBONE|DICT|INTERRES
    51   24   94 1    
    52   25   26 2    
    53   25   27 1    
    54   27   28 1    
    55   27   29 1    
    56   27   95 1    
    57   28   96 1    
    58   28   97 1    
    59   28   98 1    
    60   29   30 am   BACKBONE|DICT|INTERRES
    61   29   99 1    
    62   30   31 2    
    63   30   32 1    
    64   32   33 1    
    65   32   34 1    
    66   32  100 1    
    67   33  101 1    
    68   33  102 1    
    69   33  103 1    
    70   34   35 am   BACKBONE|DICT|INTERRES
    71   34  104 1    
    72   35   36 2    
    73   37   38 2    
    74   37   39 am   BACKBONE|DICT|INTERRES
    75   39   40 1    
    76   39  105 1    
    77   40   41 1    
    78   40   42 1    
    79   40  106 1    
    80   41  107 1    
    81   41  108 1    
    82   41  109 1    
    83   42   43 2    
    84   42   44 am   BACKBONE|DICT|INTERRES
    85   44   45 1    
    86   44  110 1    
    87   45   46 1    
    88   45   47 1    
    89   45  111 1    
    90   46  112 1    
    91   46  113 1    
    92   46  114 1    
    93   47   48 2    
    94   47   49 am   BACKBONE|DICT|INTERRES
    95   49   50 1    
    96   49  115 1    
    97   50   51 1    
    98   50   52 1    
    99   50  116 1    
   100   51  117 1    
   101   51  118 1    
   102   51  119 1    
   103   52   53 2    
   104   52   54 am   BACKBONE|DICT|INTERRES
   105   54   55 1    
   106   54  120 1    
   107   55   56 1    
   108   55   57 1    
   109   55  121 1    
   110   56  122 1    
   111   56  123 1    
   112   56  124 1    
   113   57   58 2    
   114   57   59 am   BACKBONE|DICT|INTERRES
   115   59   60 1    
   116   59  125 1    
   117   60   61 1    
   118   60   62 1    
   119   60  126 1    
   120   61  127 1    
   121   61  128 1    
   122   61  129 1    
   123   62   63 2    
   124   62   64 am   BACKBONE|DICT|INTERRES
   125   64   65 1    
   126   64  130 1    
   127   65   66 1    
   128   65   69 1    
   129   65  131 1    
   130   66   67 am   BACKBONE|DICT|INTERRES
   131   66   68 2    
   132   67  132 1    
   133   67  133 1    
   134   69   70 1    
   135   69  134 1    
   136   69  135 1    
   137   70   71 1    
   138   71  136 1    
   139   71  137 1    
@<TRIPOS>SUBSTRUCTURE
     1 UNK         1 GROUP             0       ****    0 ROOT    
