@<TRIPOS>MOLECULE
3R136
137   139    1
SMALL
USER_CHARGES


@<TRIPOS>ATOM
      1 CA         34.9507   25.8134    0.6722 C.3       0 UNK        -0.1979 
      2 C          33.6874   26.5972    0.9901 C.2       0 UNK         0.4864 
      3 O          33.6611   27.3187    1.9896 O.2       0 UNK        -0.5359 
      4 N          32.6563   26.4629    0.1484 N.am      1 UNK        -0.4318 
      5 CA         31.3523   27.1106    0.2737 C.3       1 UNK         0.0824 
      6 C6         30.3801   26.2856    1.1650 C.3       12 UNK        -0.0944 
      7 S7         29.7802   24.7159    0.4292 S.3       12 UNK        -0.2672 
      8 C8         30.8226   23.4480    1.2200 C.3       12 UNK         0.0333 
      9 C9         30.4241   23.2194    2.6694 C.ar      12 UNK        -0.0807 
     10 C10        31.2950   23.5708    3.7025 C.ar      12 UNK        -0.0894 
     11 C11        30.9133   23.4331    5.0447 C.ar      12 UNK        -0.0804 
     12 C12        29.6325   22.9480    5.3320 C.ar      12 UNK        -0.0824 
     13 C13        28.7537   22.5832    4.3067 C.ar      12 UNK        -0.0762 
     14 C14        29.1706   22.6861    2.9770 C.ar      12 UNK        -0.0782 
     15 C15        27.3378   22.1249    4.6334 C.3       12 UNK         0.0230 
     16 S16        26.0650   23.2103    3.8974 S.3       12 UNK        -0.2608 
     17 C17        26.5442   24.8608    4.5201 C.3       12 UNK        -0.0989 
     18 CA         27.3073   25.6919    3.4522 C.3       5 UNK         0.0716 
     19 N          26.5420   25.9088    2.2149 N.am      5 UNK        -0.4135 
     20 C          25.4231   26.6194    2.0261 C.2       4 UNK         0.5031 
     21 O          24.9252   27.3477    2.8871 O.2       4 UNK        -0.5229 
     22 CA         24.7282   26.4824    0.6536 C.3       4 UNK         0.0329 
     23 CB         23.7516   27.6355    0.3592 C.3       4 UNK        -0.2001 
     24 N          25.6482   26.3395   -0.4805 N.am      4 UNK        -0.4303 
     25 C          26.2341   25.2029   -0.8730 C.2       3 UNK         0.5044 
     26 O          26.1593   24.1543   -0.2334 O.2       3 UNK        -0.5152 
     27 CA         27.0371   25.2244   -2.1875 C.3       3 UNK         0.0319 
     28 CB         26.0990   25.1644   -3.4086 C.3       3 UNK        -0.2001 
     29 N          28.0100   26.3189   -2.3114 N.am      3 UNK        -0.4354 
     30 C          27.8029   27.6412   -2.3931 C.2       2 UNK         0.4964 
     31 O          26.6890   28.1672   -2.3508 O.2       2 UNK        -0.5047 
     32 CA         29.0698   28.5114   -2.4923 C.3       2 UNK         0.0288 
     33 CB         28.7556   30.0059   -2.6898 C.3       2 UNK        -0.2113 
     34 N          29.8874   28.3309   -1.2888 N.am      2 UNK        -0.4145 
     35 C          30.7963   27.3571   -1.1409 C.2       1 UNK         0.5006 
     36 O          31.1463   26.6156   -2.0653 O.2       1 UNK        -0.5103 
     37 C          27.9383   26.9547    4.0722 C.2       5 UNK         0.5055 
     38 O          29.1541   26.9872    4.2550 O.2       5 UNK        -0.5220 
     39 N          27.1175   27.9543    4.4066 N.am      6 UNK        -0.4450 
     40 CA         27.5424   29.2248    4.9969 C.3       6 UNK         0.0367 
     41 CB         26.4745   29.6896    6.0001 C.3       6 UNK        -0.1929 
     42 C          27.7807   30.3104    3.9359 C.2       6 UNK         0.5070 
     43 O          28.5119   31.2633    4.2093 O.2       6 UNK        -0.5237 
     44 N          27.1517   30.1677    2.7597 N.am      7 UNK        -0.4739 
     45 CA         27.2150   31.1169    1.6469 C.3       7 UNK         0.0276 
     46 CB         26.2649   30.6556    0.5312 C.3       7 UNK        -0.1927 
     47 C          28.6448   31.2812    1.1110 C.2       7 UNK         0.5013 
     48 O          29.2029   30.3115    0.5914 O.2       7 UNK        -0.5193 
     49 N          29.2000   32.4938    1.2770 N.am      8 UNK        -0.4253 
     50 CA         30.5325   32.9485    0.8444 C.3       8 UNK         0.0242 
     51 CB         30.5300   33.1817   -0.6807 C.3       8 UNK        -0.2000 
     52 C          31.6905   32.0293    1.2896 C.2       8 UNK         0.4948 
     53 O          32.6897   31.9100    0.5770 O.2       8 UNK        -0.5275 
     54 N          31.5093   31.3473    2.4264 N.am      9 UNK        -0.4246 
     55 CA         32.3058   30.1869    2.7977 C.3       9 UNK         0.0261 
     56 CB         31.4804   29.2949    3.7368 C.3       9 UNK        -0.1959 
     57 C          33.6541   30.5458    3.4256 C.2       9 UNK         0.5033 
     58 O          33.7206   31.4073    4.3049 O.2       9 UNK        -0.5390 
     59 N          34.6812   29.7921    3.0191 N.am      10 UNK        -0.4215 
     60 CA         35.9510   29.6592    3.7350 C.3       10 UNK         0.0240 
     61 CB         37.0478   29.2289    2.7477 C.3       10 UNK        -0.1982 
     62 C          35.8189   28.6354    4.8776 C.2       10 UNK         0.4970 
     63 O          36.5302   28.7428    5.8763 O.2       10 UNK        -0.4916 
     64 N          34.8934   27.6803    4.7113 N.am      11 UNK        -0.4279 
     65 CA         34.4803   26.6798    5.7021 C.3       11 UNK         0.1003 
     66 C          33.7450   27.2607    6.9500 C.2       11 UNK         0.5709 
     67 N          33.2818   28.5058    6.9337 N.am      11 UNK        -0.7358 
     68 O          33.6094   26.5777    7.9618 O.2       11 UNK        -0.4999 
     69 C69        33.6468   25.5870    4.9860 C.3       12 UNK        -0.0954 
     70 S70        33.6009   23.9776    5.8418 S.3       12 UNK        -0.2268 
     71 C71        31.8179   23.8306    6.2169 C.3       12 UNK         0.0203 
     72 H72        35.7802   26.4966    0.4927 H         1 UNK         0.0888 
     73 H73        35.2128   25.1716    1.5128 H         1 UNK         0.0888 
     74 H74        34.8295   25.1848   -0.2098 H         1 UNK         0.0888 
     75 H75        32.7445   25.9058   -0.6925 H         1 UNK         0.3017 
     76 H76        31.4891   28.0899    0.7289 H         1 UNK         0.0873 
     77 H77        30.8399   26.0841    2.1339 H         1 UNK         0.0745 
     78 H78        29.5013   26.8928    1.3877 H         1 UNK         0.0745 
     79 H79        30.7162   22.5119    0.6703 H         1 UNK         0.0705 
     80 H80        31.8710   23.7378    1.1360 H         1 UNK         0.0705 
     81 H81        32.2632   23.9664    3.4409 H         1 UNK         0.1334 
     82 H82        29.3132   22.8686    6.3625 H         1 UNK         0.1417 
     83 H83        28.4898   22.4218    2.1786 H         1 UNK         0.1562 
     84 H84        27.1810   22.0817    5.7124 H         1 UNK         0.0748 
     85 H85        27.1962   21.1095    4.2611 H         1 UNK         0.0748 
     86 H86        27.1482   24.7359    5.4211 H         1 UNK         0.0940 
     87 H87        25.6396   25.3826    4.8372 H         1 UNK         0.0940 
     88 H88        28.1599   25.1004    3.1273 H         1 UNK         0.0703 
     89 H89        26.8320   25.3267    1.4382 H         1 UNK         0.3081 
     90 H90        24.1299   25.5710    0.7181 H         1 UNK         0.0719 
     91 H91        23.0097   27.7415    1.1519 H         1 UNK         0.0809 
     92 H92        24.2695   28.5879    0.2643 H         1 UNK         0.0809 
     93 H93        23.2044   27.4615   -0.5674 H         1 UNK         0.0809 
     94 H94        25.8072   27.1613   -1.0596 H         1 UNK         0.2990 
     95 H95        27.6342   24.3109   -2.1948 H         1 UNK         0.0690 
     96 H96        26.6633   25.0819   -4.3375 H         1 UNK         0.0788 
     97 H97        25.4622   26.0466   -3.4807 H         1 UNK         0.0788 
     98 H98        25.4417   24.2957   -3.3510 H         1 UNK         0.0788 
     99 H99        28.9784   26.0196   -2.3030 H         1 UNK         0.2993 
    100 H100       29.6245   28.1789   -3.3726 H         1 UNK         0.0949 
    101 H101       28.1785   30.4152   -1.8612 H         1 UNK         0.0767 
    102 H102       29.6701   30.5903   -2.7859 H         1 UNK         0.0767 
    103 H103       28.1740   30.1640   -3.5988 H         1 UNK         0.0767 
    104 H104       29.6480   28.9314   -0.4989 H         1 UNK         0.3013 
    105 H105       26.1362   27.8540    4.1509 H         1 UNK         0.3121 
    106 H106       28.4798   29.0848    5.5401 H         1 UNK         0.0774 
    107 H107       25.5095   29.8515    5.5180 H         1 UNK         0.0815 
    108 H108       26.3339   28.9576    6.7956 H         1 UNK         0.0815 
    109 H109       26.7655   30.6288    6.4728 H         1 UNK         0.0815 
    110 H110       26.5842   29.3447    2.6211 H         1 UNK         0.2987 
    111 H111       26.8600   32.0824    2.0137 H         1 UNK         0.0949 
    112 H112       25.2321   30.6377    0.8784 H         1 UNK         0.0806 
    113 H113       26.3046   31.3340   -0.3222 H         1 UNK         0.0806 
    114 H114       26.5217   29.6600    0.1662 H         1 UNK         0.0806 
    115 H115       28.6557   33.1887    1.7698 H         1 UNK         0.3010 
    116 H116       30.7059   33.9099    1.3300 H         1 UNK         0.0829 
    117 H117       30.4220   32.2440   -1.2257 H         1 UNK         0.0813 
    118 H118       29.7166   33.8414   -0.9823 H         1 UNK         0.0813 
    119 H119       31.4603   33.6456   -1.0107 H         1 UNK         0.0813 
    120 H120       30.6749   31.5209    2.9711 H         1 UNK         0.3038 
    121 H121       32.5014   29.6266    1.8847 H         1 UNK         0.0769 
    122 H122       30.5489   28.9914    3.2596 H         1 UNK         0.0811 
    123 H123       31.2296   29.8045    4.6679 H         1 UNK         0.0811 
    124 H124       32.0169   28.3812    3.9936 H         1 UNK         0.0811 
    125 H125       34.4786   29.0699    2.3329 H         1 UNK         0.3204 
    126 H126       36.2283   30.6226    4.1685 H         1 UNK         0.0748 
    127 H127       36.8257   28.2637    2.2901 H         1 UNK         0.0771 
    128 H128       37.1683   29.9595    1.9476 H         1 UNK         0.0771 
    129 H129       38.0113   29.1380    3.2513 H         1 UNK         0.0771 
    130 H130       34.3879   27.6466    3.8326 H         1 UNK         0.2980 
    131 H131       35.3974   26.2186    6.0731 H         1 UNK         0.0545 
    132 H132       33.4116   29.0952    6.1284 H         1 UNK         0.3459 
    133 H133       32.8191   28.8653    7.7533 H         1 UNK         0.3459 
    134 H134       34.0801   25.3810    4.0059 H         1 UNK         0.0616 
    135 H135       32.6351   25.9474    4.7882 H         1 UNK         0.0616 
    136 H136       31.7157   23.0859    7.0077 H         1 UNK         0.0634 
    137 H137       31.4628   24.7729    6.6367 H         1 UNK         0.0634 
@<TRIPOS>BOND
     1    1    2 1    
     2    1   72 1    
     3    1   73 1    
     4    1   74 1    
     5    2    3 2    
     6    2    4 am   BACKBONE|DICT|INTERRES
     7    4    5 1    
     8    4   75 1    
     9    5    6 1    
    10    5   35 1    
    11    5   76 1    
    12    6    7 1    
    13    6   77 1    
    14    6   78 1    
    15    7    8 1    
    16    8    9 1    
    17    8   79 1    
    18    8   80 1    
    19    9   10 ar   
    20    9   14 ar   
    21   10   11 ar   
    22   10   81 1    
    23   11   12 ar   
    24   11   71 1    
    25   12   13 ar   
    26   12   82 1    
    27   13   14 ar   
    28   13   15 1    
    29   14   83 1    
    30   15   16 1    
    31   15   84 1    
    32   15   85 1    
    33   16   17 1    
    34   17   18 1    
    35   17   86 1    
    36   17   87 1    
    37   18   19 1    
    38   18   37 1    
    39   18   88 1    
    40   19   20 am   BACKBONE|DICT|INTERRES
    41   19   89 1    
    42   20   21 2    
    43   20   22 1    
    44   22   23 1    
    45   22   24 1    
    46   22   90 1    
    47   23   91 1    
    48   23   92 1    
    49   23   93 1    
    50   24   25 am   BACKBONE|DICT|INTERRES
    51   24   94 1    
    52   25   26 2    
    53   25   27 1    
    54   27   28 1    
    55   27   29 1    
    56   27   95 1    
    57   28   96 1    
    58   28   97 1    
    59   28   98 1    
    60   29   30 am   BACKBONE|DICT|INTERRES
    61   29   99 1    
    62   30   31 2    
    63   30   32 1    
    64   32   33 1    
    65   32   34 1    
    66   32  100 1    
    67   33  101 1    
    68   33  102 1    
    69   33  103 1    
    70   34   35 am   BACKBONE|DICT|INTERRES
    71   34  104 1    
    72   35   36 2    
    73   37   38 2    
    74   37   39 am   BACKBONE|DICT|INTERRES
    75   39   40 1    
    76   39  105 1    
    77   40   41 1    
    78   40   42 1    
    79   40  106 1    
    80   41  107 1    
    81   41  108 1    
    82   41  109 1    
    83   42   43 2    
    84   42   44 am   BACKBONE|DICT|INTERRES
    85   44   45 1    
    86   44  110 1    
    87   45   46 1    
    88   45   47 1    
    89   45  111 1    
    90   46  112 1    
    91   46  113 1    
    92   46  114 1    
    93   47   48 2    
    94   47   49 am   BACKBONE|DICT|INTERRES
    95   49   50 1    
    96   49  115 1    
    97   50   51 1    
    98   50   52 1    
    99   50  116 1    
   100   51  117 1    
   101   51  118 1    
   102   51  119 1    
   103   52   53 2    
   104   52   54 am   BACKBONE|DICT|INTERRES
   105   54   55 1    
   106   54  120 1    
   107   55   56 1    
   108   55   57 1    
   109   55  121 1    
   110   56  122 1    
   111   56  123 1    
   112   56  124 1    
   113   57   58 2    
   114   57   59 am   BACKBONE|DICT|INTERRES
   115   59   60 1    
   116   59  125 1    
   117   60   61 1    
   118   60   62 1    
   119   60  126 1    
   120   61  127 1    
   121   61  128 1    
   122   61  129 1    
   123   62   63 2    
   124   62   64 am   BACKBONE|DICT|INTERRES
   125   64   65 1    
   126   64  130 1    
   127   65   66 1    
   128   65   69 1    
   129   65  131 1    
   130   66   67 am   BACKBONE|DICT|INTERRES
   131   66   68 2    
   132   67  132 1    
   133   67  133 1    
   134   69   70 1    
   135   69  134 1    
   136   69  135 1    
   137   70   71 1    
   138   71  136 1    
   139   71  137 1    
@<TRIPOS>SUBSTRUCTURE
     1 UNK         1 GROUP             0       ****    0 ROOT    
