@<TRIPOS>MOLECULE
3R136
137   139    1
SMALL
USER_CHARGES


@<TRIPOS>ATOM
      1 CA         32.6177   19.2533    0.3504 C.3       0 UNK        -0.1979 
      2 C          32.0612   20.6404    0.0657 C.2       0 UNK         0.4864 
      3 O          32.1820   21.1280   -1.0587 O.2       0 UNK        -0.5359 
      4 N          31.4561   21.2780    1.0768 N.am      1 UNK        -0.4318 
      5 CA         30.8310   22.6037    0.9875 C.3       1 UNK         0.0824 
      6 C6         30.5545   23.2066    2.3885 C.3       12 UNK        -0.0944 
      7 S7         29.5434   22.1244    3.4623 S.3       12 UNK        -0.2672 
      8 C8         29.8370   22.8552    5.1020 C.3       12 UNK         0.0333 
      9 C9         29.3394   24.2909    5.1855 C.ar      12 UNK        -0.0807 
     10 C10        30.2452   25.3392    5.3656 C.ar      12 UNK        -0.0894 
     11 C11        29.7939   26.6594    5.4461 C.ar      12 UNK        -0.0804 
     12 C12        28.4253   26.9283    5.3581 C.ar      12 UNK        -0.0824 
     13 C13        27.5114   25.8891    5.1609 C.ar      12 UNK        -0.0762 
     14 C14        27.9735   24.5719    5.0833 C.ar      12 UNK        -0.0782 
     15 C15        26.0256   26.1824    5.0251 C.3       12 UNK         0.0230 
     16 S16        25.5590   26.4653    3.2875 S.3       12 UNK        -0.2608 
     17 C17        26.0651   28.2017    3.0334 C.3       12 UNK        -0.0989 
     18 CA         27.3629   28.3480    2.1955 C.3       5 UNK         0.0716 
     19 N          27.2201   27.7402    0.8706 N.am      5 UNK        -0.4135 
     20 C          28.2184   27.3598    0.0665 C.2       4 UNK         0.5031 
     21 O          29.4090   27.4248    0.3803 O.2       4 UNK        -0.5229 
     22 CA         27.8086   26.8370   -1.3208 C.3       4 UNK         0.0329 
     23 CB         29.0136   26.5995   -2.2500 C.3       4 UNK        -0.2001 
     24 N          27.0168   25.6086   -1.2233 N.am      4 UNK        -0.4303 
     25 C          25.7015   25.5672   -0.9595 C.2       3 UNK         0.5044 
     26 O          25.0367   26.5770   -0.7190 O.2       3 UNK        -0.5152 
     27 CA         24.9893   24.2008   -0.9858 C.3       3 UNK         0.0319 
     28 CB         23.9443   24.1617   -2.1143 C.3       3 UNK        -0.2001 
     29 N          25.9112   23.0776   -1.1660 N.am      3 UNK        -0.4354 
     30 C          26.4954   22.4011   -0.1698 C.2       2 UNK         0.4964 
     31 O          26.2660   22.6070    1.0229 O.2       2 UNK        -0.5047 
     32 CA         27.5181   21.3127   -0.5592 C.3       2 UNK         0.0288 
     33 CB         27.7485   21.1617   -2.0816 C.3       2 UNK        -0.2113 
     34 N          28.7967   21.5122    0.1311 N.am      2 UNK        -0.4145 
     35 C          29.5622   22.6162    0.1065 C.2       1 UNK         0.5006 
     36 O          29.3078   23.6128   -0.5720 O.2       1 UNK        -0.5103 
     37 C          27.7872   29.8264    2.0474 C.2       5 UNK         0.5055 
     38 O          26.9825   30.7289    2.2910 O.2       5 UNK        -0.5220 
     39 N          29.0275   30.0514    1.5970 N.am      6 UNK        -0.4450 
     40 CA         29.6003   31.3534    1.2465 C.3       6 UNK         0.0367 
     41 CB         30.8249   31.1313    0.3406 C.3       6 UNK        -0.1929 
     42 C          29.9338   32.2292    2.4707 C.2       6 UNK         0.5070 
     43 O          31.1023   32.5379    2.7067 O.2       6 UNK        -0.5237 
     44 N          28.8959   32.6192    3.2237 N.am      7 UNK        -0.4739 
     45 CA         28.8860   33.6279    4.2962 C.3       7 UNK         0.0276 
     46 CB         29.0067   35.0372    3.6784 C.3       7 UNK        -0.1927 
     47 C          29.9171   33.3972    5.4218 C.2       7 UNK         0.5013 
     48 O          30.4194   34.3642    5.9974 O.2       7 UNK        -0.5193 
     49 N          30.2203   32.1211    5.7019 N.am      8 UNK        -0.4253 
     50 CA         31.2335   31.6398    6.6507 C.3       8 UNK         0.0242 
     51 CB         30.8779   32.0338    8.1010 C.3       8 UNK        -0.2000 
     52 C          32.6847   32.0009    6.2670 C.2       8 UNK         0.4948 
     53 O          33.5556   31.9929    7.1398 O.2       8 UNK        -0.5275 
     54 N          32.9296   32.2845    4.9801 N.am      9 UNK        -0.4246 
     55 CA         34.2544   32.4903    4.4005 C.3       9 UNK         0.0261 
     56 CB         34.2159   33.7301    3.4820 C.3       9 UNK        -0.1959 
     57 C          34.6884   31.1907    3.6982 C.2       9 UNK         0.5033 
     58 O          34.6601   30.1261    4.3210 O.2       9 UNK        -0.5390 
     59 N          35.0869   31.2772    2.4229 N.am      10 UNK        -0.4215 
     60 CA         35.5161   30.1513    1.5904 C.3       10 UNK         0.0240 
     61 CB         36.3958   30.6886    0.4451 C.3       10 UNK        -0.1982 
     62 C          34.3156   29.3295    1.0810 C.2       10 UNK         0.4970 
     63 O          34.0367   29.3291   -0.1196 O.2       10 UNK        -0.4916 
     64 N          33.6120   28.6708    2.0094 N.am      11 UNK        -0.4279 
     65 CA         32.4730   27.7806    1.7416 C.3       11 UNK         0.1003 
     66 C          32.8372   26.5632    0.8470 C.2       11 UNK         0.5709 
     67 N          31.8878   26.0806    0.0597 N.am      11 UNK        -0.7358 
     68 O          33.9469   26.0343    0.8910 O.2       11 UNK        -0.4999 
     69 C69        31.7969   27.3037    3.0501 C.3       12 UNK        -0.0954 
     70 S70        31.1118   28.6650    4.0521 S.3       12 UNK        -0.2268 
     71 C71        30.7869   27.7970    5.6208 C.3       12 UNK         0.0203 
     72 H72        32.4463   18.9486    1.3828 H         1 UNK         0.0888 
     73 H73        32.1466   18.5189   -0.3024 H         1 UNK         0.0888 
     74 H74        33.6915   19.2348    0.1658 H         1 UNK         0.0888 
     75 H75        31.3885   20.8317    1.9811 H         1 UNK         0.3017 
     76 H76        31.5501   23.2587    0.4919 H         1 UNK         0.0873 
     77 H77        31.5039   23.4010    2.8900 H         1 UNK         0.0745 
     78 H78        30.0635   24.1787    2.3008 H         1 UNK         0.0745 
     79 H79        29.3224   22.2548    5.8534 H         1 UNK         0.0705 
     80 H80        30.9010   22.7934    5.3358 H         1 UNK         0.0705 
     81 H81        31.3039   25.1297    5.4351 H         1 UNK         0.1334 
     82 H82        28.0765   27.9496    5.4212 H         1 UNK         0.1417 
     83 H83        27.2722   23.7630    4.9275 H         1 UNK         0.1562 
     84 H84        25.7422   27.0390    5.6385 H         1 UNK         0.0748 
     85 H85        25.4485   25.3383    5.4060 H         1 UNK         0.0748 
     86 H86        26.1782   28.6916    4.0019 H         1 UNK         0.0940 
     87 H87        25.2361   28.7140    2.5408 H         1 UNK         0.0940 
     88 H88        28.1671   27.8302    2.7219 H         1 UNK         0.0703 
     89 H89        26.2725   27.6118    0.5316 H         1 UNK         0.3081 
     90 H90        27.1974   27.6141   -1.7852 H         1 UNK         0.0719 
     91 H91        29.6024   27.5105   -2.3653 H         1 UNK         0.0809 
     92 H92        29.6813   25.8297   -1.8649 H         1 UNK         0.0809 
     93 H93        28.6919   26.2944   -3.2457 H         1 UNK         0.0809 
     94 H94        27.5324   24.7398   -1.3000 H         1 UNK         0.2990 
     95 H95        24.4625   24.0945   -0.0350 H         1 UNK         0.0690 
     96 H96        23.3982   23.2181   -2.1164 H         1 UNK         0.0788 
     97 H97        24.4034   24.2871   -3.0957 H         1 UNK         0.0788 
     98 H98        23.2083   24.9581   -1.9949 H         1 UNK         0.0788 
     99 H99        26.1629   22.8444   -2.1162 H         1 UNK         0.2993 
    100 H100       27.1094   20.3709   -0.1900 H         1 UNK         0.0949 
    101 H101       28.1471   22.0715   -2.5325 H         1 UNK         0.0767 
    102 H102       28.4584   20.3604   -2.2877 H         1 UNK         0.0767 
    103 H103       26.8244   20.9041   -2.6010 H         1 UNK         0.0767 
    104 H104       29.0763   20.7723    0.7590 H         1 UNK         0.3013 
    105 H105       29.5940   29.2360    1.3904 H         1 UNK         0.3121 
    106 H106       28.8573   31.8979    0.6599 H         1 UNK         0.0774 
    107 H107       31.6439   30.6611    0.8830 H         1 UNK         0.0815 
    108 H108       30.5841   30.5052   -0.5188 H         1 UNK         0.0815 
    109 H109       31.2001   32.0805   -0.0438 H         1 UNK         0.0815 
    110 H110       27.9918   32.2208    2.9789 H         1 UNK         0.2987 
    111 H111       27.9067   33.5585    4.7723 H         1 UNK         0.0949 
    112 H112       28.2513   35.2006    2.9098 H         1 UNK         0.0806 
    113 H113       28.8688   35.8132    4.4326 H         1 UNK         0.0806 
    114 H114       29.9864   35.1932    3.2248 H         1 UNK         0.0806 
    115 H115       29.7678   31.4094    5.1451 H         1 UNK         0.3010 
    116 H116       31.1957   30.5542    6.5990 H         1 UNK         0.0829 
    117 H117       30.9819   33.1061    8.2681 H         1 UNK         0.0813 
    118 H118       29.8550   31.7518    8.3501 H         1 UNK         0.0813 
    119 H119       31.5324   31.5318    8.8146 H         1 UNK         0.0813 
    120 H120       32.1603   32.2673    4.3146 H         1 UNK         0.3038 
    121 H121       34.9867   32.6840    5.1867 H         1 UNK         0.0769 
    122 H122       33.8743   34.6076    4.0316 H         1 UNK         0.0811 
    123 H123       33.5423   33.5969    2.6346 H         1 UNK         0.0811 
    124 H124       35.2066   33.9689    3.0931 H         1 UNK         0.0811 
    125 H125       35.0455   32.1798    1.9723 H         1 UNK         0.3204 
    126 H126       36.1341   29.4824    2.1935 H         1 UNK         0.0748 
    127 H127       35.8504   31.3841   -0.1943 H         1 UNK         0.0771 
    128 H128       37.2752   31.2055    0.8297 H         1 UNK         0.0771 
    129 H129       36.7522   29.8745   -0.1877 H         1 UNK         0.0771 
    130 H130       33.8797   28.7866    2.9806 H         1 UNK         0.2980 
    131 H131       31.7452   28.3730    1.1873 H         1 UNK         0.0545 
    132 H132       32.0849   25.2988   -0.5418 H         1 UNK         0.3459 
    133 H133       30.9620   26.5044    0.0672 H         1 UNK         0.3459 
    134 H134       32.5045   26.7364    3.6574 H         1 UNK         0.0616 
    135 H135       30.9716   26.6268    2.8196 H         1 UNK         0.0616 
    136 H136       30.3864   28.5002    6.3500 H         1 UNK         0.0634 
    137 H137       31.7293   27.4316    6.0318 H         1 UNK         0.0634 
@<TRIPOS>BOND
     1    1    2 1    
     2    1   72 1    
     3    1   73 1    
     4    1   74 1    
     5    2    3 2    
     6    2    4 am   BACKBONE|DICT|INTERRES
     7    4    5 1    
     8    4   75 1    
     9    5    6 1    
    10    5   35 1    
    11    5   76 1    
    12    6    7 1    
    13    6   77 1    
    14    6   78 1    
    15    7    8 1    
    16    8    9 1    
    17    8   79 1    
    18    8   80 1    
    19    9   10 ar   
    20    9   14 ar   
    21   10   11 ar   
    22   10   81 1    
    23   11   12 ar   
    24   11   71 1    
    25   12   13 ar   
    26   12   82 1    
    27   13   14 ar   
    28   13   15 1    
    29   14   83 1    
    30   15   16 1    
    31   15   84 1    
    32   15   85 1    
    33   16   17 1    
    34   17   18 1    
    35   17   86 1    
    36   17   87 1    
    37   18   19 1    
    38   18   37 1    
    39   18   88 1    
    40   19   20 am   BACKBONE|DICT|INTERRES
    41   19   89 1    
    42   20   21 2    
    43   20   22 1    
    44   22   23 1    
    45   22   24 1    
    46   22   90 1    
    47   23   91 1    
    48   23   92 1    
    49   23   93 1    
    50   24   25 am   BACKBONE|DICT|INTERRES
    51   24   94 1    
    52   25   26 2    
    53   25   27 1    
    54   27   28 1    
    55   27   29 1    
    56   27   95 1    
    57   28   96 1    
    58   28   97 1    
    59   28   98 1    
    60   29   30 am   BACKBONE|DICT|INTERRES
    61   29   99 1    
    62   30   31 2    
    63   30   32 1    
    64   32   33 1    
    65   32   34 1    
    66   32  100 1    
    67   33  101 1    
    68   33  102 1    
    69   33  103 1    
    70   34   35 am   BACKBONE|DICT|INTERRES
    71   34  104 1    
    72   35   36 2    
    73   37   38 2    
    74   37   39 am   BACKBONE|DICT|INTERRES
    75   39   40 1    
    76   39  105 1    
    77   40   41 1    
    78   40   42 1    
    79   40  106 1    
    80   41  107 1    
    81   41  108 1    
    82   41  109 1    
    83   42   43 2    
    84   42   44 am   BACKBONE|DICT|INTERRES
    85   44   45 1    
    86   44  110 1    
    87   45   46 1    
    88   45   47 1    
    89   45  111 1    
    90   46  112 1    
    91   46  113 1    
    92   46  114 1    
    93   47   48 2    
    94   47   49 am   BACKBONE|DICT|INTERRES
    95   49   50 1    
    96   49  115 1    
    97   50   51 1    
    98   50   52 1    
    99   50  116 1    
   100   51  117 1    
   101   51  118 1    
   102   51  119 1    
   103   52   53 2    
   104   52   54 am   BACKBONE|DICT|INTERRES
   105   54   55 1    
   106   54  120 1    
   107   55   56 1    
   108   55   57 1    
   109   55  121 1    
   110   56  122 1    
   111   56  123 1    
   112   56  124 1    
   113   57   58 2    
   114   57   59 am   BACKBONE|DICT|INTERRES
   115   59   60 1    
   116   59  125 1    
   117   60   61 1    
   118   60   62 1    
   119   60  126 1    
   120   61  127 1    
   121   61  128 1    
   122   61  129 1    
   123   62   63 2    
   124   62   64 am   BACKBONE|DICT|INTERRES
   125   64   65 1    
   126   64  130 1    
   127   65   66 1    
   128   65   69 1    
   129   65  131 1    
   130   66   67 am   BACKBONE|DICT|INTERRES
   131   66   68 2    
   132   67  132 1    
   133   67  133 1    
   134   69   70 1    
   135   69  134 1    
   136   69  135 1    
   137   70   71 1    
   138   71  136 1    
   139   71  137 1    
@<TRIPOS>SUBSTRUCTURE
     1 UNK         1 GROUP             0       ****    0 ROOT    
