@<TRIPOS>MOLECULE
3R136
137   139    1
SMALL
USER_CHARGES


@<TRIPOS>ATOM
      1 CA         30.7371   23.2660   -3.7041 C.3       0 UNK        -0.1979 
      2 C          30.4318   23.5943   -2.2511 C.2       0 UNK         0.4864 
      3 O          30.0771   24.7310   -1.9467 O.2       0 UNK        -0.5359 
      4 N          30.5505   22.6054   -1.3549 N.am      1 UNK        -0.4318 
      5 CA         30.3235   22.7119    0.0944 C.3       1 UNK         0.0824 
      6 C6         30.7298   21.3780    0.7853 C.3       12 UNK        -0.0944 
      7 S7         30.1770   21.0716    2.4979 S.3       12 UNK        -0.2672 
      8 C8         31.4352   21.9418    3.4989 C.3       12 UNK         0.0333 
      9 C9         30.9841   23.3345    3.9290 C.ar      12 UNK        -0.0807 
     10 C10        31.8477   24.4303    3.8266 C.ar      12 UNK        -0.0894 
     11 C11        31.4303   25.7116    4.2233 C.ar      12 UNK        -0.0804 
     12 C12        30.1313   25.8815    4.7133 C.ar      12 UNK        -0.0824 
     13 C13        29.2606   24.7960    4.8195 C.ar      12 UNK        -0.0762 
     14 C14        29.7032   23.5251    4.4528 C.ar      12 UNK        -0.0782 
     15 C15        27.8294   24.9766    5.2965 C.3       12 UNK         0.0230 
     16 S16        26.6712   24.6924    3.9208 S.3       12 UNK        -0.2608 
     17 C17        26.0157   26.3501    3.5573 C.3       12 UNK        -0.0989 
     18 CA         27.0468   27.4661    3.2341 C.3       5 UNK         0.0716 
     19 N          27.9870   27.1319    2.1557 N.am      5 UNK        -0.4135 
     20 C          29.0215   27.9063    1.7810 C.2       4 UNK         0.5031 
     21 O          29.3803   28.9161    2.3908 O.2       4 UNK        -0.5229 
     22 CA         29.7518   27.5464    0.4731 C.3       4 UNK         0.0329 
     23 CB         30.9914   26.6821    0.7405 C.3       4 UNK        -0.2001 
     24 N          28.8977   26.8857   -0.5143 N.am      4 UNK        -0.4303 
     25 C          27.8085   27.4241   -1.0794 C.2       3 UNK         0.5044 
     26 O          27.4114   28.5648   -0.8458 O.2       3 UNK        -0.5152 
     27 CA         27.0009   26.5255   -2.0287 C.3       3 UNK         0.0319 
     28 CB         27.5433   26.6160   -3.4636 C.3       3 UNK        -0.2001 
     29 N          26.9924   25.1292   -1.5847 N.am      3 UNK        -0.4354 
     30 C          26.2872   24.6793   -0.5361 C.2       2 UNK         0.4964 
     31 O          25.5179   25.3835    0.1188 O.2       2 UNK        -0.5047 
     32 CA         26.4918   23.2052   -0.1352 C.3       2 UNK         0.0288 
     33 CB         25.5617   22.2892   -0.9467 C.3       2 UNK        -0.2113 
     34 N          27.8785   22.7446   -0.2764 N.am      2 UNK        -0.4145 
     35 C          28.9052   23.2313    0.4384 C.2       1 UNK         0.5006 
     36 O          28.7726   24.1153    1.2830 O.2       1 UNK        -0.5103 
     37 C          26.2727   28.7630    2.9263 C.2       5 UNK         0.5055 
     38 O          26.2108   29.6498    3.7778 O.2       5 UNK        -0.5220 
     39 N          25.6910   28.8405    1.7196 N.am      6 UNK        -0.4450 
     40 CA         24.8849   29.9714    1.2510 C.3       6 UNK         0.0367 
     41 CB         24.1280   29.5724   -0.0261 C.3       6 UNK        -0.1929 
     42 C          25.7228   31.2379    1.0183 C.2       6 UNK         0.5070 
     43 O          25.2645   32.3358    1.3348 O.2       6 UNK        -0.5237 
     44 N          26.9453   31.0596    0.5004 N.am      7 UNK        -0.4739 
     45 CA         27.9449   32.1183    0.3387 C.3       7 UNK         0.0276 
     46 CB         29.0667   31.6088   -0.5802 C.3       7 UNK        -0.1927 
     47 C          28.5358   32.6085    1.6743 C.2       7 UNK         0.5013 
     48 O          29.0639   33.7202    1.7166 O.2       7 UNK        -0.5193 
     49 N          28.4492   31.7699    2.7196 N.am      8 UNK        -0.4253 
     50 CA         29.0127   31.9384    4.0633 C.3       8 UNK         0.0242 
     51 CB         28.3053   33.0842    4.8174 C.3       8 UNK        -0.2000 
     52 C          30.5452   32.0845    4.0248 C.2       8 UNK         0.4948 
     53 O          31.0973   33.0101    4.6248 O.2       8 UNK        -0.5275 
     54 N          31.1986   31.1836    3.2784 N.am      9 UNK        -0.4246 
     55 CA         32.6470   31.1808    3.0687 C.3       9 UNK         0.0261 
     56 CB         32.9804   30.2670    1.8791 C.3       9 UNK        -0.1959 
     57 C          33.4170   30.7511    4.3297 C.2       9 UNK         0.5033 
     58 O          32.9086   29.9634    5.1314 O.2       9 UNK        -0.5390 
     59 N          34.6501   31.2517    4.4684 N.am      10 UNK        -0.4215 
     60 CA         35.5604   30.9446    5.5737 C.3       10 UNK         0.0240 
     61 CB         36.5180   32.1345    5.7766 C.3       10 UNK        -0.1982 
     62 C          36.3052   29.6204    5.3221 C.2       10 UNK         0.4970 
     63 O          37.5154   29.6287    5.0884 O.2       10 UNK        -0.4916 
     64 N          35.5608   28.5087    5.3450 N.am      11 UNK        -0.4279 
     65 CA         36.0764   27.1486    5.1015 C.3       11 UNK         0.1003 
     66 C          36.9606   26.5680    6.2441 C.2       11 UNK         0.5709 
     67 N          36.9881   27.1588    7.4332 N.am      11 UNK        -0.7358 
     68 O          37.6409   25.5644    6.0438 O.2       11 UNK        -0.4999 
     69 C69        34.9504   26.1510    4.7192 C.3       12 UNK        -0.0954 
     70 S70        33.9366   26.7351    3.3198 S.3       12 UNK        -0.2268 
     71 C71        32.3169   26.9546    4.1354 C.3       12 UNK         0.0203 
     72 H72        31.5565   23.8883   -4.0625 H         1 UNK         0.0888 
     73 H73        31.0197   22.2220   -3.8372 H         1 UNK         0.0888 
     74 H74        29.8633   23.4638   -4.3242 H         1 UNK         0.0888 
     75 H75        30.8462   21.6957   -1.6797 H         1 UNK         0.3017 
     76 H76        31.0105   23.4782    0.4593 H         1 UNK         0.0873 
     77 H77        30.3307   20.5430    0.2067 H         1 UNK         0.0745 
     78 H78        31.8137   21.2602    0.7427 H         1 UNK         0.0745 
     79 H79        31.6279   21.3542    4.3972 H         1 UNK         0.0705 
     80 H80        32.3786   21.9854    2.9530 H         1 UNK         0.0705 
     81 H81        32.8418   24.2729    3.4352 H         1 UNK         0.1334 
     82 H82        29.7945   26.8686    4.9990 H         1 UNK         0.1417 
     83 H83        29.0253   22.6867    4.5357 H         1 UNK         0.1562 
     84 H84        27.6745   25.9603    5.7408 H         1 UNK         0.0748 
     85 H85        27.6220   24.2519    6.0851 H         1 UNK         0.0748 
     86 H86        25.4031   26.6461    4.4117 H         1 UNK         0.0940 
     87 H87        25.3179   26.2248    2.7267 H         1 UNK         0.0940 
     88 H88        27.6423   27.6563    4.1279 H         1 UNK         0.0703 
     89 H89        27.8234   26.2654    1.6578 H         1 UNK         0.3081 
     90 H90        30.0917   28.4790    0.0207 H         1 UNK         0.0719 
     91 H91        31.7392   27.2439    1.2954 H         1 UNK         0.0809 
     92 H92        30.7505   25.7959    1.3263 H         1 UNK         0.0809 
     93 H93        31.4636   26.3567   -0.1864 H         1 UNK         0.0809 
     94 H94        29.1966   25.9659   -0.8305 H         1 UNK         0.2990 
     95 H95        25.9717   26.8912   -2.0346 H         1 UNK         0.0690 
     96 H96        27.5215   27.6463   -3.8214 H         1 UNK         0.0788 
     97 H97        26.9432   26.0215   -4.1527 H         1 UNK         0.0788 
     98 H98        28.5752   26.2706   -3.5327 H         1 UNK         0.0788 
     99 H99        27.6448   24.5048   -2.0371 H         1 UNK         0.2993 
    100 H100       26.2221   23.1190    0.9202 H         1 UNK         0.0949 
    101 H101       25.6263   21.2559   -0.6053 H         1 UNK         0.0767 
    102 H102       24.5210   22.5990   -0.8407 H         1 UNK         0.0767 
    103 H103       25.8011   22.3084   -2.0107 H         1 UNK         0.0767 
    104 H104       28.0625   22.0318   -0.9670 H         1 UNK         0.3013 
    105 H105       25.8292   28.0823    1.0651 H         1 UNK         0.3121 
    106 H106       24.1485   30.2005    2.0245 H         1 UNK         0.0774 
    107 H107       23.4917   30.3885   -0.3712 H         1 UNK         0.0815 
    108 H108       24.8083   29.3242   -0.8414 H         1 UNK         0.0815 
    109 H109       23.4833   28.7105    0.1469 H         1 UNK         0.0815 
    110 H110       27.2038   30.1265    0.1848 H         1 UNK         0.2987 
    111 H111       27.4632   32.9722   -0.1427 H         1 UNK         0.0949 
    112 H112       29.6078   30.7779   -0.1275 H         1 UNK         0.0806 
    113 H113       28.6746   31.2716   -1.5400 H         1 UNK         0.0806 
    114 H114       29.7927   32.3971   -0.7837 H         1 UNK         0.0806 
    115 H115       28.0202   30.8692    2.5500 H         1 UNK         0.3010 
    116 H116       28.8056   31.0108    4.5996 H         1 UNK         0.0829 
    117 H117       28.4968   34.0536    4.3565 H         1 UNK         0.0813 
    118 H118       27.2262   32.9317    4.8432 H         1 UNK         0.0813 
    119 H119       28.6500   33.1415    5.8505 H         1 UNK         0.0813 
    120 H120       30.6660   30.4212    2.8699 H         1 UNK         0.3038 
    121 H121       32.9488   32.1989    2.8128 H         1 UNK         0.0769 
    122 H122       32.6718   29.2402    2.0640 H         1 UNK         0.0811 
    123 H123       34.0526   30.2525    1.6798 H         1 UNK         0.0811 
    124 H124       32.4855   30.6047    0.9683 H         1 UNK         0.0811 
    125 H125       35.0124   31.8579    3.7459 H         1 UNK         0.3204 
    126 H126       34.9833   30.8269    6.4937 H         1 UNK         0.0748 
    127 H127       37.2046   31.9464    6.6032 H         1 UNK         0.0771 
    128 H128       37.1214   32.3281    4.8886 H         1 UNK         0.0771 
    129 H129       35.9705   33.0468    6.0147 H         1 UNK         0.0771 
    130 H130       34.5624   28.6010    5.4886 H         1 UNK         0.2980 
    131 H131       36.7375   27.2195    4.2355 H         1 UNK         0.0545 
    132 H132       37.5686   26.7745    8.1620 H         1 UNK         0.3459 
    133 H133       36.4331   27.9803    7.6093 H         1 UNK         0.3459 
    134 H134       34.3117   25.9465    5.5803 H         1 UNK         0.0616 
    135 H135       35.3782   25.1897    4.4289 H         1 UNK         0.0616 
    136 H136       32.4723   27.3444    5.1417 H         1 UNK         0.0634 
    137 H137       31.7695   27.7301    3.5999 H         1 UNK         0.0634 
@<TRIPOS>BOND
     1    1    2 1    
     2    1   72 1    
     3    1   73 1    
     4    1   74 1    
     5    2    3 2    
     6    2    4 am   BACKBONE|DICT|INTERRES
     7    4    5 1    
     8    4   75 1    
     9    5    6 1    
    10    5   35 1    
    11    5   76 1    
    12    6    7 1    
    13    6   77 1    
    14    6   78 1    
    15    7    8 1    
    16    8    9 1    
    17    8   79 1    
    18    8   80 1    
    19    9   10 ar   
    20    9   14 ar   
    21   10   11 ar   
    22   10   81 1    
    23   11   12 ar   
    24   11   71 1    
    25   12   13 ar   
    26   12   82 1    
    27   13   14 ar   
    28   13   15 1    
    29   14   83 1    
    30   15   16 1    
    31   15   84 1    
    32   15   85 1    
    33   16   17 1    
    34   17   18 1    
    35   17   86 1    
    36   17   87 1    
    37   18   19 1    
    38   18   37 1    
    39   18   88 1    
    40   19   20 am   BACKBONE|DICT|INTERRES
    41   19   89 1    
    42   20   21 2    
    43   20   22 1    
    44   22   23 1    
    45   22   24 1    
    46   22   90 1    
    47   23   91 1    
    48   23   92 1    
    49   23   93 1    
    50   24   25 am   BACKBONE|DICT|INTERRES
    51   24   94 1    
    52   25   26 2    
    53   25   27 1    
    54   27   28 1    
    55   27   29 1    
    56   27   95 1    
    57   28   96 1    
    58   28   97 1    
    59   28   98 1    
    60   29   30 am   BACKBONE|DICT|INTERRES
    61   29   99 1    
    62   30   31 2    
    63   30   32 1    
    64   32   33 1    
    65   32   34 1    
    66   32  100 1    
    67   33  101 1    
    68   33  102 1    
    69   33  103 1    
    70   34   35 am   BACKBONE|DICT|INTERRES
    71   34  104 1    
    72   35   36 2    
    73   37   38 2    
    74   37   39 am   BACKBONE|DICT|INTERRES
    75   39   40 1    
    76   39  105 1    
    77   40   41 1    
    78   40   42 1    
    79   40  106 1    
    80   41  107 1    
    81   41  108 1    
    82   41  109 1    
    83   42   43 2    
    84   42   44 am   BACKBONE|DICT|INTERRES
    85   44   45 1    
    86   44  110 1    
    87   45   46 1    
    88   45   47 1    
    89   45  111 1    
    90   46  112 1    
    91   46  113 1    
    92   46  114 1    
    93   47   48 2    
    94   47   49 am   BACKBONE|DICT|INTERRES
    95   49   50 1    
    96   49  115 1    
    97   50   51 1    
    98   50   52 1    
    99   50  116 1    
   100   51  117 1    
   101   51  118 1    
   102   51  119 1    
   103   52   53 2    
   104   52   54 am   BACKBONE|DICT|INTERRES
   105   54   55 1    
   106   54  120 1    
   107   55   56 1    
   108   55   57 1    
   109   55  121 1    
   110   56  122 1    
   111   56  123 1    
   112   56  124 1    
   113   57   58 2    
   114   57   59 am   BACKBONE|DICT|INTERRES
   115   59   60 1    
   116   59  125 1    
   117   60   61 1    
   118   60   62 1    
   119   60  126 1    
   120   61  127 1    
   121   61  128 1    
   122   61  129 1    
   123   62   63 2    
   124   62   64 am   BACKBONE|DICT|INTERRES
   125   64   65 1    
   126   64  130 1    
   127   65   66 1    
   128   65   69 1    
   129   65  131 1    
   130   66   67 am   BACKBONE|DICT|INTERRES
   131   66   68 2    
   132   67  132 1    
   133   67  133 1    
   134   69   70 1    
   135   69  134 1    
   136   69  135 1    
   137   70   71 1    
   138   71  136 1    
   139   71  137 1    
@<TRIPOS>SUBSTRUCTURE
     1 UNK         1 GROUP             0       ****    0 ROOT    
