@<TRIPOS>MOLECULE
3R136
137   139    1
SMALL
USER_CHARGES


@<TRIPOS>ATOM
      1 CA         26.5177   25.0013    3.6536 C.3       0 UNK        -0.1979 
      2 C          27.0228   24.2883    2.4090 C.2       0 UNK         0.4864 
      3 O          27.3532   24.9501    1.4230 O.2       0 UNK        -0.5359 
      4 N          27.0721   22.9486    2.4472 N.am      1 UNK        -0.4318 
      5 CA         27.5675   22.0643    1.3797 C.3       1 UNK         0.0824 
      6 C6         29.0991   22.1949    1.1509 C.3       12 UNK        -0.0944 
      7 S7         30.0491   21.7343    2.6394 S.3       12 UNK        -0.2672 
      8 C8         31.7115   21.4820    1.9429 C.3       12 UNK         0.0333 
      9 C9         32.4665   22.7955    1.8008 C.ar      12 UNK        -0.0807 
     10 C10        33.3427   23.2117    2.8084 C.ar      12 UNK        -0.0894 
     11 C11        34.0527   24.4089    2.6810 C.ar      12 UNK        -0.0804 
     12 C12        33.8779   25.1947    1.5383 C.ar      12 UNK        -0.0824 
     13 C13        32.9993   24.7932    0.5273 C.ar      12 UNK        -0.0762 
     14 C14        32.3017   23.5883    0.6606 C.ar      12 UNK        -0.0782 
     15 C15        32.8099   25.6593   -0.7109 C.3       12 UNK         0.0230 
     16 S16        32.0499   27.2673   -0.3177 S.3       12 UNK        -0.2608 
     17 C17        30.4301   26.7467    0.3360 C.3       12 UNK        -0.0989 
     18 CA         29.5050   27.9508    0.6378 C.3       5 UNK         0.0716 
     19 N          28.0978   27.5495    0.6445 N.am      5 UNK        -0.4135 
     20 C          27.0492   28.3825    0.6854 C.2       4 UNK         0.5031 
     21 O          27.1492   29.6072    0.7706 O.2       4 UNK        -0.5229 
     22 CA         25.6653   27.7106    0.6175 C.3       4 UNK         0.0329 
     23 CB         24.5006   28.7126    0.4668 C.3       4 UNK        -0.2001 
     24 N          25.6351   26.6698   -0.4191 N.am      4 UNK        -0.4303 
     25 C          25.7647   26.8364   -1.7454 C.2       3 UNK         0.5044 
     26 O          25.7890   27.9335   -2.3043 O.2       3 UNK        -0.5152 
     27 CA         25.9413   25.5698   -2.6052 C.3       3 UNK         0.0319 
     28 CB         27.3783   25.4970   -3.1499 C.3       3 UNK        -0.2001 
     29 N          25.6548   24.3198   -1.8985 N.am      3 UNK        -0.4354 
     30 C          24.4427   23.8573   -1.5738 C.2       2 UNK         0.4964 
     31 O          23.3962   24.4473   -1.8425 O.2       2 UNK        -0.5047 
     32 CA         24.3767   22.5225   -0.8051 C.3       2 UNK         0.0288 
     33 CB         24.3297   21.3282   -1.7786 C.3       2 UNK        -0.2113 
     34 N          25.4176   22.3397    0.2224 N.am      2 UNK        -0.4145 
     35 C          26.7470   22.2055    0.0757 C.2       1 UNK         0.5006 
     36 O          27.3177   22.2235   -1.0171 O.2       1 UNK        -0.5103 
     37 C          29.8940   28.6755    1.9414 C.2       5 UNK         0.5055 
     38 O          30.5268   29.7301    1.8874 O.2       5 UNK        -0.5220 
     39 N          29.4325   28.1404    3.0824 N.am      6 UNK        -0.4450 
     40 CA         29.6567   28.6953    4.4210 C.3       6 UNK         0.0367 
     41 CB         29.1128   27.7205    5.4770 C.3       6 UNK        -0.1929 
     42 C          29.0635   30.1015    4.6320 C.2       6 UNK         0.5070 
     43 O          29.5636   30.8411    5.4786 O.2       6 UNK        -0.5237 
     44 N          28.0221   30.4532    3.8633 N.am      7 UNK        -0.4739 
     45 CA         27.4235   31.7895    3.8584 C.3       7 UNK         0.0276 
     46 CB         25.9875   31.7094    3.3151 C.3       7 UNK        -0.1927 
     47 C          28.2555   32.8038    3.0534 C.2       7 UNK         0.5013 
     48 O          28.1843   33.9973    3.3493 O.2       7 UNK        -0.5193 
     49 N          29.0256   32.3269    2.0637 N.am      8 UNK        -0.4253 
     50 CA         29.9588   33.1399    1.2829 C.3       8 UNK         0.0242 
     51 CB         30.2071   32.4920   -0.0900 C.3       8 UNK        -0.2000 
     52 C          31.2736   33.3545    2.0477 C.2       8 UNK         0.4948 
     53 O          31.7363   34.4925    2.1393 O.2       8 UNK        -0.5275 
     54 N          31.8333   32.2743    2.6074 N.am      9 UNK        -0.4246 
     55 CA         33.0129   32.2962    3.4679 C.3       9 UNK         0.0261 
     56 CB         34.2992   32.3683    2.6235 C.3       9 UNK        -0.1959 
     57 C          32.9925   31.0375    4.3364 C.2       9 UNK         0.5033 
     58 O          32.9619   29.9333    3.7919 O.2       9 UNK        -0.5390 
     59 N          33.0378   31.2073    5.6637 N.am      10 UNK        -0.4215 
     60 CA         32.9313   30.1401    6.6684 C.3       10 UNK         0.0240 
     61 CB         32.4948   30.7638    8.0078 C.3       10 UNK        -0.1982 
     62 C          34.1988   29.2660    6.8026 C.2       10 UNK         0.4970 
     63 O          34.6444   29.0007    7.9205 O.2       10 UNK        -0.4916 
     64 N          34.7500   28.8339    5.6624 N.am      11 UNK        -0.4279 
     65 CA         35.9009   27.9254    5.5152 C.3       11 UNK         0.1003 
     66 C          37.2516   28.4637    6.0808 C.2       11 UNK         0.5709 
     67 N          37.4021   29.7641    6.3037 N.am      11 UNK        -0.7358 
     68 O          38.1938   27.7018    6.2866 O.2       11 UNK        -0.4999 
     69 C69        35.5761   26.4753    5.9797 C.3       12 UNK        -0.0954 
     70 S70        34.1529   25.7696    5.0805 S.3       12 UNK        -0.2268 
     71 C71        35.0157   24.8511    3.7708 C.3       12 UNK         0.0203 
     72 H72        27.2533   25.7289    3.9914 H         1 UNK         0.0888 
     73 H73        25.5887   25.5269    3.4362 H         1 UNK         0.0888 
     74 H74        26.3306   24.3070    4.4725 H         1 UNK         0.0888 
     75 H75        26.7885   22.4749    3.2938 H         1 UNK         0.3017 
     76 H76        27.3773   21.0448    1.7191 H         1 UNK         0.0873 
     77 H77        29.3625   23.2124    0.8578 H         1 UNK         0.0745 
     78 H78        29.4193   21.5436    0.3356 H         1 UNK         0.0745 
     79 H79        32.2627   20.8075    2.5999 H         1 UNK         0.0705 
     80 H80        31.6456   20.9734    0.9799 H         1 UNK         0.0705 
     81 H81        33.4731   22.6042    3.6938 H         1 UNK         0.1334 
     82 H82        34.4179   26.1266    1.4374 H         1 UNK         0.1417 
     83 H83        31.6266   23.2674   -0.1209 H         1 UNK         0.1562 
     84 H84        32.1993   25.1491   -1.4576 H         1 UNK         0.0748 
     85 H85        33.7811   25.8328   -1.1765 H         1 UNK         0.0748 
     86 H86        30.5699   26.1197    1.2193 H         1 UNK         0.0940 
     87 H87        29.9717   26.1035   -0.4174 H         1 UNK         0.0940 
     88 H88        29.6082   28.6732   -0.1754 H         1 UNK         0.0703 
     89 H89        27.9066   26.5494    0.6723 H         1 UNK         0.3081 
     90 H90        25.5291   27.1976    1.5698 H         1 UNK         0.0719 
     91 H91        23.5411   28.1995    0.4050 H         1 UNK         0.0809 
     92 H92        24.4551   29.3847    1.3246 H         1 UNK         0.0809 
     93 H93        24.6076   29.3347   -0.4221 H         1 UNK         0.0809 
     94 H94        25.6840   25.7201   -0.0745 H         1 UNK         0.2990 
     95 H95        25.2548   25.6512   -3.4505 H         1 UNK         0.0690 
     96 H96        28.1092   25.4060   -2.3451 H         1 UNK         0.0788 
     97 H97        27.6293   26.3932   -3.7193 H         1 UNK         0.0788 
     98 H98        27.5069   24.6448   -3.8176 H         1 UNK         0.0788 
     99 H99        26.4496   23.7322   -1.6563 H         1 UNK         0.2993 
    100 H100       23.4305   22.5333   -0.2610 H         1 UNK         0.0949 
    101 H101       25.2349   21.2553   -2.3822 H         1 UNK         0.0767 
    102 H102       24.2058   20.3861   -1.2444 H         1 UNK         0.0767 
    103 H103       23.4895   21.4222   -2.4681 H         1 UNK         0.0767 
    104 H104       25.0725   22.3476    1.1725 H         1 UNK         0.3013 
    105 H105       28.9055   27.2819    3.0265 H         1 UNK         0.3121 
    106 H106       30.7357   28.7731    4.5573 H         1 UNK         0.0774 
    107 H107       28.0309   27.6060    5.4025 H         1 UNK         0.0815 
    108 H108       29.3313   28.0800    6.4837 H         1 UNK         0.0815 
    109 H109       29.5679   26.7343    5.3830 H         1 UNK         0.0815 
    110 H110       27.6839   29.8009    3.1695 H         1 UNK         0.2987 
    111 H111       27.3730   32.1513    4.8881 H         1 UNK         0.0949 
    112 H112       25.9644   31.4045    2.2688 H         1 UNK         0.0806 
    113 H113       25.3836   31.0038    3.8857 H         1 UNK         0.0806 
    114 H114       25.4957   32.6810    3.3781 H         1 UNK         0.0806 
    115 H115       29.0613   31.3259    1.9130 H         1 UNK         0.3010 
    116 H116       29.5081   34.1196    1.1085 H         1 UNK         0.0829 
    117 H117       29.2739   32.3524   -0.6361 H         1 UNK         0.0813 
    118 H118       30.8514   33.1228   -0.7038 H         1 UNK         0.0813 
    119 H119       30.6928   31.5198   -0.0061 H         1 UNK         0.0813 
    120 H120       31.4083   31.3572    2.4700 H         1 UNK         0.3038 
    121 H121       32.9634   33.1743    4.1156 H         1 UNK         0.0769 
    122 H122       34.3723   31.5276    1.9322 H         1 UNK         0.0811 
    123 H123       35.1855   32.3481    3.2589 H         1 UNK         0.0811 
    124 H124       34.3415   33.2868    2.0381 H         1 UNK         0.0811 
    125 H125       33.1007   32.1483    6.0254 H         1 UNK         0.3204 
    126 H126       32.1323   29.4657    6.3553 H         1 UNK         0.0748 
    127 H127       33.2474   31.4500    8.3983 H         1 UNK         0.0771 
    128 H128       31.5589   31.3132    7.9009 H         1 UNK         0.0771 
    129 H129       32.3276   29.9956    8.7642 H         1 UNK         0.0771 
    130 H130       34.2799   29.0996    4.8000 H         1 UNK         0.2980 
    131 H131       36.0771   27.8771    4.4403 H         1 UNK         0.0545 
    132 H132       38.2816   30.1058    6.6576 H         1 UNK         0.3459 
    133 H133       36.6410   30.4016    6.1360 H         1 UNK         0.3459 
    134 H134       36.4343   25.8158    5.8399 H         1 UNK         0.0616 
    135 H135       35.3540   26.4566    7.0476 H         1 UNK         0.0616 
    136 H136       35.5161   23.9848    4.2062 H         1 UNK         0.0634 
    137 H137       35.7991   25.4786    3.3426 H         1 UNK         0.0634 
@<TRIPOS>BOND
     1    1    2 1    
     2    1   72 1    
     3    1   73 1    
     4    1   74 1    
     5    2    3 2    
     6    2    4 am   BACKBONE|DICT|INTERRES
     7    4    5 1    
     8    4   75 1    
     9    5    6 1    
    10    5   35 1    
    11    5   76 1    
    12    6    7 1    
    13    6   77 1    
    14    6   78 1    
    15    7    8 1    
    16    8    9 1    
    17    8   79 1    
    18    8   80 1    
    19    9   10 ar   
    20    9   14 ar   
    21   10   11 ar   
    22   10   81 1    
    23   11   12 ar   
    24   11   71 1    
    25   12   13 ar   
    26   12   82 1    
    27   13   14 ar   
    28   13   15 1    
    29   14   83 1    
    30   15   16 1    
    31   15   84 1    
    32   15   85 1    
    33   16   17 1    
    34   17   18 1    
    35   17   86 1    
    36   17   87 1    
    37   18   19 1    
    38   18   37 1    
    39   18   88 1    
    40   19   20 am   BACKBONE|DICT|INTERRES
    41   19   89 1    
    42   20   21 2    
    43   20   22 1    
    44   22   23 1    
    45   22   24 1    
    46   22   90 1    
    47   23   91 1    
    48   23   92 1    
    49   23   93 1    
    50   24   25 am   BACKBONE|DICT|INTERRES
    51   24   94 1    
    52   25   26 2    
    53   25   27 1    
    54   27   28 1    
    55   27   29 1    
    56   27   95 1    
    57   28   96 1    
    58   28   97 1    
    59   28   98 1    
    60   29   30 am   BACKBONE|DICT|INTERRES
    61   29   99 1    
    62   30   31 2    
    63   30   32 1    
    64   32   33 1    
    65   32   34 1    
    66   32  100 1    
    67   33  101 1    
    68   33  102 1    
    69   33  103 1    
    70   34   35 am   BACKBONE|DICT|INTERRES
    71   34  104 1    
    72   35   36 2    
    73   37   38 2    
    74   37   39 am   BACKBONE|DICT|INTERRES
    75   39   40 1    
    76   39  105 1    
    77   40   41 1    
    78   40   42 1    
    79   40  106 1    
    80   41  107 1    
    81   41  108 1    
    82   41  109 1    
    83   42   43 2    
    84   42   44 am   BACKBONE|DICT|INTERRES
    85   44   45 1    
    86   44  110 1    
    87   45   46 1    
    88   45   47 1    
    89   45  111 1    
    90   46  112 1    
    91   46  113 1    
    92   46  114 1    
    93   47   48 2    
    94   47   49 am   BACKBONE|DICT|INTERRES
    95   49   50 1    
    96   49  115 1    
    97   50   51 1    
    98   50   52 1    
    99   50  116 1    
   100   51  117 1    
   101   51  118 1    
   102   51  119 1    
   103   52   53 2    
   104   52   54 am   BACKBONE|DICT|INTERRES
   105   54   55 1    
   106   54  120 1    
   107   55   56 1    
   108   55   57 1    
   109   55  121 1    
   110   56  122 1    
   111   56  123 1    
   112   56  124 1    
   113   57   58 2    
   114   57   59 am   BACKBONE|DICT|INTERRES
   115   59   60 1    
   116   59  125 1    
   117   60   61 1    
   118   60   62 1    
   119   60  126 1    
   120   61  127 1    
   121   61  128 1    
   122   61  129 1    
   123   62   63 2    
   124   62   64 am   BACKBONE|DICT|INTERRES
   125   64   65 1    
   126   64  130 1    
   127   65   66 1    
   128   65   69 1    
   129   65  131 1    
   130   66   67 am   BACKBONE|DICT|INTERRES
   131   66   68 2    
   132   67  132 1    
   133   67  133 1    
   134   69   70 1    
   135   69  134 1    
   136   69  135 1    
   137   70   71 1    
   138   71  136 1    
   139   71  137 1    
@<TRIPOS>SUBSTRUCTURE
     1 UNK         1 GROUP             0       ****    0 ROOT    
