@<TRIPOS>MOLECULE
3R136
137   139    1
SMALL
USER_CHARGES


@<TRIPOS>ATOM
      1 CA         26.8303   18.3466   -0.1718 C.3       0 UNK        -0.1979 
      2 C          27.0751   19.6460   -0.9249 C.2       0 UNK         0.4864 
      3 O          26.7600   19.7331   -2.1129 O.2       0 UNK        -0.5359 
      4 N          27.6403   20.6534   -0.2466 N.am      1 UNK        -0.4318 
      5 CA         27.8877   21.9907   -0.7899 C.3       1 UNK         0.0824 
      6 C6         28.8847   22.7738    0.0988 C.3       12 UNK        -0.0944 
      7 S7         29.5379   24.2797   -0.7063 S.3       12 UNK        -0.2672 
      8 C8         31.3416   24.0192   -0.6145 C.3       12 UNK         0.0333 
      9 C9         31.9050   24.4582    0.7311 C.ar      12 UNK        -0.0807 
     10 C10        32.5612   25.6868    0.8570 C.ar      12 UNK        -0.0894 
     11 C11        33.0597   26.1098    2.0950 C.ar      12 UNK        -0.0804 
     12 C12        32.8927   25.2876    3.2151 C.ar      12 UNK        -0.0824 
     13 C13        32.2191   24.0673    3.1048 C.ar      12 UNK        -0.0762 
     14 C14        31.7591   23.6445    1.8566 C.ar      12 UNK        -0.0782 
     15 C15        31.9071   23.2357    4.3391 C.3       12 UNK         0.0230 
     16 S16        30.1190   23.2718    4.7102 S.3       12 UNK        -0.2608 
     17 C17        29.8653   25.0304    5.1330 C.3       12 UNK        -0.0989 
     18 CA         29.4375   25.9052    3.9179 C.3       5 UNK         0.0716 
     19 N          28.1980   25.4715    3.2629 N.am      5 UNK        -0.4135 
     20 C          26.9623   25.5015    3.7813 C.2       4 UNK         0.5031 
     21 O          26.7041   25.8643    4.9305 O.2       4 UNK        -0.5229 
     22 CA         25.8258   25.0565    2.8357 C.3       4 UNK         0.0329 
     23 CB         24.4228   25.4065    3.3760 C.3       4 UNK        -0.2001 
     24 N          25.9843   25.5503    1.4592 N.am      4 UNK        -0.4303 
     25 C          26.0792   26.8325    1.0644 C.2       3 UNK         0.5044 
     26 O          26.0573   27.7868    1.8400 O.2       3 UNK        -0.5152 
     27 CA         26.2731   27.1214   -0.4370 C.3       3 UNK         0.0319 
     28 CB         27.6460   27.7671   -0.6811 C.3       3 UNK        -0.2001 
     29 N          26.1578   25.9316   -1.2805 N.am      3 UNK        -0.4354 
     30 C          25.0014   25.3883   -1.6859 C.2       2 UNK         0.4964 
     31 O          23.8949   25.8727   -1.4481 O.2       2 UNK        -0.5047 
     32 CA         25.0938   24.0640   -2.4670 C.3       2 UNK         0.0288 
     33 CB         25.0506   24.3279   -3.9809 C.3       2 UNK        -0.2113 
     34 N          26.2878   23.2713   -2.1475 N.am      2 UNK        -0.4145 
     35 C          26.5553   22.7479   -0.9424 C.2       1 UNK         0.5006 
     36 O          25.8231   22.8829    0.0414 O.2       1 UNK        -0.5103 
     37 C          29.4381   27.4163    4.2377 C.2       5 UNK         0.5055 
     38 O          29.8341   27.8169    5.3338 O.2       5 UNK        -0.5220 
     39 N          29.0096   28.2286    3.2629 N.am      6 UNK        -0.4450 
     40 CA         29.0402   29.6905    3.3200 C.3       6 UNK         0.0367 
     41 CB         27.7056   30.2209    3.8781 C.3       6 UNK        -0.1929 
     42 C          29.3999   30.2898    1.9486 C.2       6 UNK         0.5070 
     43 O          28.9337   31.3790    1.6121 O.2       6 UNK        -0.5237 
     44 N          30.2100   29.5655    1.1600 N.am      7 UNK        -0.4739 
     45 CA         30.6645   29.9949   -0.1683 C.3       7 UNK         0.0276 
     46 CB         31.2548   28.7964   -0.9281 C.3       7 UNK        -0.1927 
     47 C          31.7008   31.1286   -0.1000 C.2       7 UNK         0.5013 
     48 O          31.6711   32.0321   -0.9356 O.2       7 UNK        -0.5193 
     49 N          32.5897   31.0574    0.8977 N.am      8 UNK        -0.4253 
     50 CA         33.6473   32.0271    1.1704 C.3       8 UNK         0.0242 
     51 CB         34.9986   31.2896    1.2343 C.3       8 UNK        -0.2000 
     52 C          33.3095   32.7644    2.4726 C.2       8 UNK         0.4948 
     53 O          34.0600   32.6768    3.4475 O.2       8 UNK        -0.5275 
     54 N          32.1533   33.4443    2.4733 N.am      9 UNK        -0.4246 
     55 CA         31.5476   34.1596    3.6011 C.3       9 UNK         0.0261 
     56 CB         32.3763   35.4102    3.9754 C.3       9 UNK        -0.1959 
     57 C          31.2789   33.2088    4.7814 C.2       9 UNK         0.5033 
     58 O          30.2928   32.4751    4.7439 O.2       9 UNK        -0.5390 
     59 N          32.1562   33.2242    5.7912 N.am      10 UNK        -0.4215 
     60 CA         32.1069   32.3256    6.9448 C.3       10 UNK         0.0240 
     61 CB         32.7700   33.0259    8.1436 C.3       10 UNK        -0.1982 
     62 C          32.7715   30.9591    6.6879 C.2       10 UNK         0.4970 
     63 O          32.5599   30.0504    7.4917 O.2       10 UNK        -0.4916 
     64 N          33.5862   30.8408    5.6260 N.am      11 UNK        -0.4279 
     65 CA         34.4210   29.6664    5.3037 C.3       11 UNK         0.1003 
     66 C          35.5164   29.3393    6.3690 C.2       11 UNK         0.5709 
     67 N          35.9119   30.2806    7.2187 N.am      11 UNK        -0.7358 
     68 O          36.0500   28.2329    6.4078 O.2       11 UNK        -0.4999 
     69 C69        33.5844   28.4245    4.8700 C.3       12 UNK        -0.0954 
     70 S70        32.8319   28.6485    3.2225 S.3       12 UNK        -0.2268 
     71 C71        33.7725   27.4529    2.2150 C.3       12 UNK         0.0203 
     72 H72        27.3623   17.5272   -0.6544 H         1 UNK         0.0888 
     73 H73        27.1661   18.4054    0.8634 H         1 UNK         0.0888 
     74 H74        25.7668   18.1090   -0.1701 H         1 UNK         0.0888 
     75 H75        27.8459   20.5330    0.7348 H         1 UNK         0.3017 
     76 H76        28.3397   21.8639   -1.7765 H         1 UNK         0.0873 
     77 H77        28.4404   23.0441    1.0589 H         1 UNK         0.0745 
     78 H78        29.7195   22.1141    0.3318 H         1 UNK         0.0745 
     79 H79        31.5853   22.9732   -0.8060 H         1 UNK         0.0705 
     80 H80        31.8113   24.5877   -1.4186 H         1 UNK         0.0705 
     81 H81        32.6852   26.3105   -0.0159 H         1 UNK         0.1334 
     82 H82        33.2498   25.6121    4.1812 H         1 UNK         0.1417 
     83 H83        31.2465   22.6974    1.7824 H         1 UNK         0.1562 
     84 H84        32.4692   23.5877    5.2057 H         1 UNK         0.0748 
     85 H85        32.2161   22.2034    4.1688 H         1 UNK         0.0748 
     86 H86        30.7897   25.4094    5.5731 H         1 UNK         0.0940 
     87 H87        29.1164   25.0889    5.9243 H         1 UNK         0.0940 
     88 H88        30.1993   25.8012    3.1487 H         1 UNK         0.0703 
     89 H89        28.3012   25.1424    2.3146 H         1 UNK         0.3081 
     90 H90        25.8918   23.9689    2.7771 H         1 UNK         0.0719 
     91 H91        24.2966   26.4819    3.5065 H         1 UNK         0.0809 
     92 H92        23.6406   25.0558    2.7029 H         1 UNK         0.0809 
     93 H93        24.2484   24.9385    4.3456 H         1 UNK         0.0809 
     94 H94        25.9913   24.8274    0.7478 H         1 UNK         0.2990 
     95 H95        25.5039   27.8381   -0.7329 H         1 UNK         0.0690 
     96 H96        27.8094   27.9743   -1.7388 H         1 UNK         0.0788 
     97 H97        28.4568   27.1274   -0.3328 H         1 UNK         0.0788 
     98 H98        27.7268   28.7178   -0.1531 H         1 UNK         0.0788 
     99 H99        27.0203   25.4685   -1.5306 H         1 UNK         0.2993 
    100 H100       24.2189   23.4685   -2.1962 H         1 UNK         0.0949 
    101 H101       24.1584   24.8940   -4.2531 H         1 UNK         0.0767 
    102 H102       25.9156   24.9016   -4.3163 H         1 UNK         0.0767 
    103 H103       25.0246   23.3958   -4.5460 H         1 UNK         0.0767 
    104 H104       26.9411   23.1150   -2.9022 H         1 UNK         0.3013 
    105 H105       28.6276   27.8290    2.4173 H         1 UNK         0.3121 
    106 H106       29.8404   30.0017    3.9945 H         1 UNK         0.0774 
    107 H107       26.8725   29.9877    3.2147 H         1 UNK         0.0815 
    108 H108       27.7370   31.3043    4.0002 H         1 UNK         0.0815 
    109 H109       27.4872   29.7930    4.8564 H         1 UNK         0.0815 
    110 H110       30.5848   28.6986    1.5178 H         1 UNK         0.2987 
    111 H111       29.7985   30.3619   -0.7241 H         1 UNK         0.0949 
    112 H112       32.1915   28.4646   -0.4825 H         1 UNK         0.0806 
    113 H113       30.5727   27.9479   -0.9521 H         1 UNK         0.0806 
    114 H114       31.4706   29.0655   -1.9630 H         1 UNK         0.0806 
    115 H115       32.4999   30.3019    1.5649 H         1 UNK         0.3010 
    116 H116       33.7069   32.7751    0.3770 H         1 UNK         0.0829 
    117 H117       35.8137   31.9854    1.4369 H         1 UNK         0.0813 
    118 H118       35.0128   30.5328    2.0188 H         1 UNK         0.0813 
    119 H119       35.2226   30.7942    0.2895 H         1 UNK         0.0813 
    120 H120       31.5889   33.4033    1.6353 H         1 UNK         0.3038 
    121 H121       30.5703   34.5054    3.2603 H         1 UNK         0.0769 
    122 H122       33.4048   35.1706    4.2462 H         1 UNK         0.0811 
    123 H123       31.9271   35.9411    4.8160 H         1 UNK         0.0811 
    124 H124       32.4160   36.1114    3.1418 H         1 UNK         0.0811 
    125 H125       32.9558   33.8371    5.7175 H         1 UNK         0.3204 
    126 H126       31.0628   32.1336    7.2024 H         1 UNK         0.0748 
    127 H127       32.7282   32.3992    9.0357 H         1 UNK         0.0771 
    128 H128       33.8199   33.2512    7.9524 H         1 UNK         0.0771 
    129 H129       32.2645   33.9613    8.3848 H         1 UNK         0.0771 
    130 H130       33.7025   31.6306    4.9965 H         1 UNK         0.2980 
    131 H131       35.0085   29.9712    4.4375 H         1 UNK         0.0545 
    132 H132       36.6283   30.0648    7.8936 H         1 UNK         0.3459 
    133 H133       35.5053   31.2010    7.1889 H         1 UNK         0.3459 
    134 H134       34.2045   27.5294    4.8428 H         1 UNK         0.0616 
    135 H135       32.7931   28.2094    5.5889 H         1 UNK         0.0616 
    136 H136       34.7718   27.3072    2.6270 H         1 UNK         0.0634 
    137 H137       33.9225   27.8908    1.2273 H         1 UNK         0.0634 
@<TRIPOS>BOND
     1    1    2 1    
     2    1   72 1    
     3    1   73 1    
     4    1   74 1    
     5    2    3 2    
     6    2    4 am   BACKBONE|DICT|INTERRES
     7    4    5 1    
     8    4   75 1    
     9    5    6 1    
    10    5   35 1    
    11    5   76 1    
    12    6    7 1    
    13    6   77 1    
    14    6   78 1    
    15    7    8 1    
    16    8    9 1    
    17    8   79 1    
    18    8   80 1    
    19    9   10 ar   
    20    9   14 ar   
    21   10   11 ar   
    22   10   81 1    
    23   11   12 ar   
    24   11   71 1    
    25   12   13 ar   
    26   12   82 1    
    27   13   14 ar   
    28   13   15 1    
    29   14   83 1    
    30   15   16 1    
    31   15   84 1    
    32   15   85 1    
    33   16   17 1    
    34   17   18 1    
    35   17   86 1    
    36   17   87 1    
    37   18   19 1    
    38   18   37 1    
    39   18   88 1    
    40   19   20 am   BACKBONE|DICT|INTERRES
    41   19   89 1    
    42   20   21 2    
    43   20   22 1    
    44   22   23 1    
    45   22   24 1    
    46   22   90 1    
    47   23   91 1    
    48   23   92 1    
    49   23   93 1    
    50   24   25 am   BACKBONE|DICT|INTERRES
    51   24   94 1    
    52   25   26 2    
    53   25   27 1    
    54   27   28 1    
    55   27   29 1    
    56   27   95 1    
    57   28   96 1    
    58   28   97 1    
    59   28   98 1    
    60   29   30 am   BACKBONE|DICT|INTERRES
    61   29   99 1    
    62   30   31 2    
    63   30   32 1    
    64   32   33 1    
    65   32   34 1    
    66   32  100 1    
    67   33  101 1    
    68   33  102 1    
    69   33  103 1    
    70   34   35 am   BACKBONE|DICT|INTERRES
    71   34  104 1    
    72   35   36 2    
    73   37   38 2    
    74   37   39 am   BACKBONE|DICT|INTERRES
    75   39   40 1    
    76   39  105 1    
    77   40   41 1    
    78   40   42 1    
    79   40  106 1    
    80   41  107 1    
    81   41  108 1    
    82   41  109 1    
    83   42   43 2    
    84   42   44 am   BACKBONE|DICT|INTERRES
    85   44   45 1    
    86   44  110 1    
    87   45   46 1    
    88   45   47 1    
    89   45  111 1    
    90   46  112 1    
    91   46  113 1    
    92   46  114 1    
    93   47   48 2    
    94   47   49 am   BACKBONE|DICT|INTERRES
    95   49   50 1    
    96   49  115 1    
    97   50   51 1    
    98   50   52 1    
    99   50  116 1    
   100   51  117 1    
   101   51  118 1    
   102   51  119 1    
   103   52   53 2    
   104   52   54 am   BACKBONE|DICT|INTERRES
   105   54   55 1    
   106   54  120 1    
   107   55   56 1    
   108   55   57 1    
   109   55  121 1    
   110   56  122 1    
   111   56  123 1    
   112   56  124 1    
   113   57   58 2    
   114   57   59 am   BACKBONE|DICT|INTERRES
   115   59   60 1    
   116   59  125 1    
   117   60   61 1    
   118   60   62 1    
   119   60  126 1    
   120   61  127 1    
   121   61  128 1    
   122   61  129 1    
   123   62   63 2    
   124   62   64 am   BACKBONE|DICT|INTERRES
   125   64   65 1    
   126   64  130 1    
   127   65   66 1    
   128   65   69 1    
   129   65  131 1    
   130   66   67 am   BACKBONE|DICT|INTERRES
   131   66   68 2    
   132   67  132 1    
   133   67  133 1    
   134   69   70 1    
   135   69  134 1    
   136   69  135 1    
   137   70   71 1    
   138   71  136 1    
   139   71  137 1    
@<TRIPOS>SUBSTRUCTURE
     1 UNK         1 GROUP             0       ****    0 ROOT    
