@<TRIPOS>MOLECULE
3R136
137   139    1
SMALL
USER_CHARGES


@<TRIPOS>ATOM
      1 CA         28.1901   22.0573   -2.6025 C.3       0 UNK        -0.1979 
      2 C          28.3647   23.4994   -3.0566 C.2       0 UNK         0.4864 
      3 O          28.0939   23.8063   -4.2191 O.2       0 UNK        -0.5359 
      4 N          28.8233   24.3753   -2.1541 N.am      1 UNK        -0.4318 
      5 CA         29.0106   25.8115   -2.3872 C.3       1 UNK         0.0824 
      6 C6         30.3607   26.3230   -1.8155 C.3       12 UNK        -0.0944 
      7 S7         30.5623   26.0251   -0.0269 S.3       12 UNK        -0.2672 
      8 C8         32.2035   25.2415    0.0030 C.3       12 UNK         0.0333 
      9 C9         32.4554   24.6051    1.3562 C.ar      12 UNK        -0.0807 
     10 C10        32.9540   25.3680    2.4157 C.ar      12 UNK        -0.0894 
     11 C11        33.1032   24.8008    3.6846 C.ar      12 UNK        -0.0804 
     12 C12        32.7575   23.4596    3.8848 C.ar      12 UNK        -0.0824 
     13 C13        32.2642   22.6869    2.8279 C.ar      12 UNK        -0.0762 
     14 C14        32.1362   23.2605    1.5602 C.ar      12 UNK        -0.0782 
     15 C15        31.8031   21.2542    3.0645 C.3       12 UNK         0.0230 
     16 S16        29.9963   21.0739    2.8562 S.3       12 UNK        -0.2608 
     17 C17        29.3632   22.2980    4.0523 C.3       12 UNK        -0.0989 
     18 CA         29.0454   23.6757    3.4011 C.3       5 UNK         0.0716 
     19 N          27.8190   23.6752    2.6046 N.am      5 UNK        -0.4135 
     20 C          27.7429   23.5126    1.2807 C.2       4 UNK         0.5031 
     21 O          28.7047   23.2846    0.5481 O.2       4 UNK        -0.5229 
     22 CA         26.3516   23.6603    0.6467 C.3       4 UNK         0.0329 
     23 CB         25.3383   22.6408    1.2065 C.3       4 UNK        -0.2001 
     24 N          25.8447   25.0363    0.6971 N.am      4 UNK        -0.4303 
     25 C          25.4709   25.7543    1.7674 C.2       3 UNK         0.5044 
     26 O          25.4967   25.3307    2.9243 O.2       3 UNK        -0.5152 
     27 CA         25.0112   27.1905    1.4746 C.3       3 UNK         0.0319 
     28 CB         24.7206   28.0314    2.7309 C.3       3 UNK        -0.2001 
     29 N          26.0171   27.8567    0.6491 N.am      3 UNK        -0.4354 
     30 C          25.7528   28.5193   -0.4818 C.2       2 UNK         0.4964 
     31 O          24.6161   28.7675   -0.8864 O.2       2 UNK        -0.5047 
     32 CA         26.9593   28.9378   -1.3395 C.3       2 UNK         0.0288 
     33 CB         27.6540   30.1716   -0.7407 C.3       2 UNK        -0.2113 
     34 N          27.9653   27.8938   -1.5851 N.am      2 UNK        -0.4145 
     35 C          27.7633   26.6141   -1.9427 C.2       1 UNK         0.5006 
     36 O          26.6523   26.0760   -1.9671 O.2       1 UNK        -0.5103 
     37 C          28.9410   24.8167    4.4245 C.2       5 UNK         0.5055 
     38 O          29.0424   24.5827    5.6304 O.2       5 UNK        -0.5220 
     39 N          28.7029   26.0304    3.9183 N.am      6 UNK        -0.4450 
     40 CA         28.5502   27.2705    4.6679 C.3       6 UNK         0.0367 
     41 CB         27.2907   27.2266    5.5610 C.3       6 UNK        -0.1929 
     42 C          28.4808   28.4293    3.6675 C.2       6 UNK         0.5070 
     43 O          28.3479   28.1974    2.4617 O.2       6 UNK        -0.5237 
     44 N          28.5660   29.6554    4.1974 N.am      7 UNK        -0.4739 
     45 CA         28.3879   30.9654    3.5509 C.3       7 UNK         0.0276 
     46 CB         26.9799   31.0878    2.9336 C.3       7 UNK        -0.1927 
     47 C          29.4779   31.3818    2.5447 C.2       7 UNK         0.5013 
     48 O          29.5926   32.5742    2.2577 O.2       7 UNK        -0.5193 
     49 N          30.2575   30.4266    2.0271 N.am      8 UNK        -0.4253 
     50 CA         31.3518   30.6509    1.0859 C.3       8 UNK         0.0242 
     51 CB         31.7030   29.3208    0.4044 C.3       8 UNK        -0.2000 
     52 C          32.5737   31.2724    1.7801 C.2       8 UNK         0.4948 
     53 O          33.4128   30.5384    2.3084 O.2       8 UNK        -0.5275 
     54 N          32.6432   32.6118    1.7646 N.am      9 UNK        -0.4246 
     55 CA         33.7283   33.4546    2.2810 C.3       9 UNK         0.0261 
     56 CB         34.9606   33.3650    1.3514 C.3       9 UNK        -0.1959 
     57 C          34.0342   33.1491    3.7587 C.2       9 UNK         0.5033 
     58 O          33.2175   33.4788    4.6204 O.2       9 UNK        -0.5390 
     59 N          35.1698   32.4880    4.0230 N.am      10 UNK        -0.4215 
     60 CA         35.5956   32.0199    5.3448 C.3       10 UNK         0.0240 
     61 CB         37.0052   31.4158    5.2364 C.3       10 UNK        -0.1982 
     62 C          34.6280   31.0155    5.9999 C.2       10 UNK         0.4970 
     63 O          34.6059   30.9338    7.2287 O.2       10 UNK        -0.4916 
     64 N          33.8406   30.2924    5.1899 N.am      11 UNK        -0.4279 
     65 CA         32.7463   29.4286    5.6547 C.3       11 UNK         0.1003 
     66 C          31.4426   30.2007    6.0236 C.2       11 UNK         0.5709 
     67 N          31.3538   31.5129    5.8338 N.am      11 UNK        -0.7358 
     68 O          30.4821   29.5994    6.4975 O.2       11 UNK        -0.4999 
     69 C69        32.4862   28.2527    4.6663 C.3       12 UNK        -0.0954 
     70 S70        32.2786   26.6663    5.5484 S.3       12 UNK        -0.2268 
     71 C71        33.6098   25.6405    4.8477 C.3       12 UNK         0.0203 
     72 H72        28.5710   21.3741   -3.3611 H         1 UNK         0.0888 
     73 H73        28.7256   21.8562   -1.6750 H         1 UNK         0.0888 
     74 H74        27.1346   21.8382   -2.4443 H         1 UNK         0.0888 
     75 H75        28.9814   24.0670   -1.1967 H         1 UNK         0.3017 
     76 H76        29.0658   25.9809   -3.4645 H         1 UNK         0.0873 
     77 H77        30.5160   27.3819   -2.0244 H         1 UNK         0.0745 
     78 H78        31.1680   25.8211   -2.3507 H         1 UNK         0.0745 
     79 H79        32.2673   24.4837   -0.7795 H         1 UNK         0.0705 
     80 H80        32.9685   25.9876   -0.2171 H         1 UNK         0.0705 
     81 H81        33.1931   26.4109    2.2597 H         1 UNK         0.1334 
     82 H82        32.8473   23.0257    4.8713 H         1 UNK         0.1417 
     83 H83        31.7206   22.6766    0.7496 H         1 UNK         0.1562 
     84 H84        32.0832   20.9143    4.0628 H         1 UNK         0.0748 
     85 H85        32.3096   20.5921    2.3610 H         1 UNK         0.0748 
     86 H86        30.1074   22.3980    4.8446 H         1 UNK         0.0940 
     87 H87        28.4723   21.8919    4.5340 H         1 UNK         0.0940 
     88 H88        29.8735   23.9646    2.7563 H         1 UNK         0.0703 
     89 H89        26.9751   23.9754    3.0844 H         1 UNK         0.3081 
     90 H90        26.4686   23.4374   -0.4147 H         1 UNK         0.0719 
     91 H91        24.3910   22.6937    0.6700 H         1 UNK         0.0809 
     92 H92        25.1291   22.7949    2.2651 H         1 UNK         0.0809 
     93 H93        25.7148   21.6229    1.0976 H         1 UNK         0.0809 
     94 H94        25.8485   25.5118   -0.2016 H         1 UNK         0.2990 
     95 H95        24.0745   27.0882    0.9227 H         1 UNK         0.0690 
     96 H96        24.2776   28.9908    2.4640 H         1 UNK         0.0788 
     97 H97        25.6260   28.2355    3.2976 H         1 UNK         0.0788 
     98 H98        24.0197   27.5240    3.3948 H         1 UNK         0.0788 
     99 H99        26.9816   27.7537    0.9509 H         1 UNK         0.2993 
    100 H100       26.5629   29.2195   -2.3170 H         1 UNK         0.0949 
    101 H101       26.9346   30.9585   -0.5090 H         1 UNK         0.0767 
    102 H102       28.1769   29.9221    0.1820 H         1 UNK         0.0767 
    103 H103       28.3826   30.5943   -1.4326 H         1 UNK         0.0767 
    104 H104       28.9227   28.2102   -1.5593 H         1 UNK         0.3013 
    105 H105       28.6463   26.1597    2.9144 H         1 UNK         0.3121 
    106 H106       29.4325   27.4116    5.2927 H         1 UNK         0.0774 
    107 H107       27.0684   28.2018    5.9955 H         1 UNK         0.0815 
    108 H108       26.4111   26.9054    5.0044 H         1 UNK         0.0815 
    109 H109       27.4195   26.5364    6.3941 H         1 UNK         0.0815 
    110 H110       28.7869   29.7048    5.1867 H         1 UNK         0.2987 
    111 H111       28.4493   31.6957    4.3593 H         1 UNK         0.0949 
    112 H112       26.8221   32.0807    2.5103 H         1 UNK         0.0806 
    113 H113       26.8179   30.3668    2.1334 H         1 UNK         0.0806 
    114 H114       26.2052   30.9302    3.6837 H         1 UNK         0.0806 
    115 H115       30.0430   29.4679    2.2696 H         1 UNK         0.3010 
    116 H116       31.0090   31.3380    0.3090 H         1 UNK         0.0829 
    117 H117       30.8571   28.9509   -0.1723 H         1 UNK         0.0813 
    118 H118       32.5399   29.4395   -0.2848 H         1 UNK         0.0813 
    119 H119       31.9808   28.5532    1.1281 H         1 UNK         0.0813 
    120 H120       31.8414   33.1117    1.4021 H         1 UNK         0.3038 
    121 H121       33.3669   34.4837    2.2522 H         1 UNK         0.0769 
    122 H122       35.7753   33.9950    1.7116 H         1 UNK         0.0811 
    123 H123       34.7138   33.7118    0.3479 H         1 UNK         0.0811 
    124 H124       35.3395   32.3465    1.2574 H         1 UNK         0.0811 
    125 H125       35.7538   32.2280    3.2414 H         1 UNK         0.3204 
    126 H126       35.6457   32.8925    5.9993 H         1 UNK         0.0748 
    127 H127       37.3641   31.0842    6.2119 H         1 UNK         0.0771 
    128 H128       37.0236   30.5512    4.5715 H         1 UNK         0.0771 
    129 H129       37.7231   32.1454    4.8611 H         1 UNK         0.0771 
    130 H130       33.8911   30.4347    4.1844 H         1 UNK         0.2980 
    131 H131       33.0842   28.9980    6.5991 H         1 UNK         0.0545 
    132 H132       32.1219   32.0490    5.4439 H         1 UNK         0.3459 
    133 H133       30.5115   31.9890    6.1104 H         1 UNK         0.3459 
    134 H134       33.3144   28.1546    3.9638 H         1 UNK         0.0616 
    135 H135       31.6093   28.4305    4.0417 H         1 UNK         0.0616 
    136 H136       34.4524   26.2586    4.5350 H         1 UNK         0.0634 
    137 H137       33.9927   24.9915    5.6367 H         1 UNK         0.0634 
@<TRIPOS>BOND
     1    1    2 1    
     2    1   72 1    
     3    1   73 1    
     4    1   74 1    
     5    2    3 2    
     6    2    4 am   BACKBONE|DICT|INTERRES
     7    4    5 1    
     8    4   75 1    
     9    5    6 1    
    10    5   35 1    
    11    5   76 1    
    12    6    7 1    
    13    6   77 1    
    14    6   78 1    
    15    7    8 1    
    16    8    9 1    
    17    8   79 1    
    18    8   80 1    
    19    9   10 ar   
    20    9   14 ar   
    21   10   11 ar   
    22   10   81 1    
    23   11   12 ar   
    24   11   71 1    
    25   12   13 ar   
    26   12   82 1    
    27   13   14 ar   
    28   13   15 1    
    29   14   83 1    
    30   15   16 1    
    31   15   84 1    
    32   15   85 1    
    33   16   17 1    
    34   17   18 1    
    35   17   86 1    
    36   17   87 1    
    37   18   19 1    
    38   18   37 1    
    39   18   88 1    
    40   19   20 am   BACKBONE|DICT|INTERRES
    41   19   89 1    
    42   20   21 2    
    43   20   22 1    
    44   22   23 1    
    45   22   24 1    
    46   22   90 1    
    47   23   91 1    
    48   23   92 1    
    49   23   93 1    
    50   24   25 am   BACKBONE|DICT|INTERRES
    51   24   94 1    
    52   25   26 2    
    53   25   27 1    
    54   27   28 1    
    55   27   29 1    
    56   27   95 1    
    57   28   96 1    
    58   28   97 1    
    59   28   98 1    
    60   29   30 am   BACKBONE|DICT|INTERRES
    61   29   99 1    
    62   30   31 2    
    63   30   32 1    
    64   32   33 1    
    65   32   34 1    
    66   32  100 1    
    67   33  101 1    
    68   33  102 1    
    69   33  103 1    
    70   34   35 am   BACKBONE|DICT|INTERRES
    71   34  104 1    
    72   35   36 2    
    73   37   38 2    
    74   37   39 am   BACKBONE|DICT|INTERRES
    75   39   40 1    
    76   39  105 1    
    77   40   41 1    
    78   40   42 1    
    79   40  106 1    
    80   41  107 1    
    81   41  108 1    
    82   41  109 1    
    83   42   43 2    
    84   42   44 am   BACKBONE|DICT|INTERRES
    85   44   45 1    
    86   44  110 1    
    87   45   46 1    
    88   45   47 1    
    89   45  111 1    
    90   46  112 1    
    91   46  113 1    
    92   46  114 1    
    93   47   48 2    
    94   47   49 am   BACKBONE|DICT|INTERRES
    95   49   50 1    
    96   49  115 1    
    97   50   51 1    
    98   50   52 1    
    99   50  116 1    
   100   51  117 1    
   101   51  118 1    
   102   51  119 1    
   103   52   53 2    
   104   52   54 am   BACKBONE|DICT|INTERRES
   105   54   55 1    
   106   54  120 1    
   107   55   56 1    
   108   55   57 1    
   109   55  121 1    
   110   56  122 1    
   111   56  123 1    
   112   56  124 1    
   113   57   58 2    
   114   57   59 am   BACKBONE|DICT|INTERRES
   115   59   60 1    
   116   59  125 1    
   117   60   61 1    
   118   60   62 1    
   119   60  126 1    
   120   61  127 1    
   121   61  128 1    
   122   61  129 1    
   123   62   63 2    
   124   62   64 am   BACKBONE|DICT|INTERRES
   125   64   65 1    
   126   64  130 1    
   127   65   66 1    
   128   65   69 1    
   129   65  131 1    
   130   66   67 am   BACKBONE|DICT|INTERRES
   131   66   68 2    
   132   67  132 1    
   133   67  133 1    
   134   69   70 1    
   135   69  134 1    
   136   69  135 1    
   137   70   71 1    
   138   71  136 1    
   139   71  137 1    
@<TRIPOS>SUBSTRUCTURE
     1 UNK         1 GROUP             0       ****    0 ROOT    
