@<TRIPOS>MOLECULE
3R136
137   139    1
SMALL
USER_CHARGES


@<TRIPOS>ATOM
      1 CA         28.6268   20.2382    3.0072 C.3       0 UNK        -0.1979 
      2 C          28.3162   20.9469    1.6978 C.2       0 UNK         0.4864 
      3 O          27.5778   21.9314    1.7080 O.2       0 UNK        -0.5359 
      4 N          28.8645   20.4369    0.5822 N.am      1 UNK        -0.4318 
      5 CA         28.8033   20.9565   -0.7980 C.3       1 UNK         0.0824 
      6 C6         29.9205   21.9945   -1.1153 C.3       12 UNK        -0.0944 
      7 S7         29.7770   23.6089   -0.2737 S.3       12 UNK        -0.2672 
      8 C8         31.0038   23.4325    1.0583 C.3       12 UNK         0.0333 
      9 C9         30.9695   24.6339    1.9892 C.ar      12 UNK        -0.0807 
     10 C10        32.0341   25.5396    2.0257 C.ar      12 UNK        -0.0894 
     11 C11        31.9920   26.6523    2.8728 C.ar      12 UNK        -0.0804 
     12 C12        30.8695   26.8618    3.6791 C.ar      12 UNK        -0.0824 
     13 C13        29.7896   25.9741    3.6313 C.ar      12 UNK        -0.0762 
     14 C14        29.8551   24.8500    2.8038 C.ar      12 UNK        -0.0782 
     15 C15        28.5208   26.2602    4.4182 C.3       12 UNK         0.0230 
     16 S16        27.1646   26.7704    3.3106 S.3       12 UNK        -0.2608 
     17 C17        27.8587   28.2739    2.5390 C.3       12 UNK        -0.0989 
     18 CA         28.4638   28.0249    1.1331 C.3       5 UNK         0.0716 
     19 N          27.4929   27.4311    0.2112 N.am      5 UNK        -0.4135 
     20 C          27.7698   26.9126   -0.9924 C.2       4 UNK         0.5031 
     21 O          28.8684   27.0063   -1.5424 O.2       4 UNK        -0.5229 
     22 CA         26.6258   26.1325   -1.6747 C.3       4 UNK         0.0329 
     23 CB         27.0527   25.5084   -3.0158 C.3       4 UNK        -0.2001 
     24 N          26.1050   25.0749   -0.8004 N.am      4 UNK        -0.4303 
     25 C          25.2483   25.2711    0.2137 C.2       3 UNK         0.5044 
     26 O          24.7698   26.3772    0.4739 O.2       3 UNK        -0.5152 
     27 CA         24.9144   24.0715    1.1224 C.3       3 UNK         0.0319 
     28 CB         23.5131   24.1741    1.7617 C.3       3 UNK        -0.2001 
     29 N          25.1195   22.7662    0.4877 N.am      3 UNK        -0.4354 
     30 C          24.4534   22.2456   -0.5559 C.2       2 UNK         0.4964 
     31 O          23.5076   22.8055   -1.1126 O.2       2 UNK        -0.5047 
     32 CA         24.9313   20.8663   -1.0646 C.3       2 UNK         0.0288 
     33 CB         24.5610   20.6145   -2.5427 C.3       2 UNK        -0.2113 
     34 N          26.3637   20.6201   -0.8392 N.am      2 UNK        -0.4145 
     35 C          27.3906   21.3596   -1.2911 C.2       1 UNK         0.5006 
     36 O          27.2477   22.3262   -2.0415 O.2       1 UNK        -0.5103 
     37 C          29.1149   29.3151    0.5990 C.2       5 UNK         0.5055 
     38 O          30.2888   29.5510    0.8878 O.2       5 UNK        -0.5220 
     39 N          28.3439   30.1228   -0.1500 N.am      6 UNK        -0.4450 
     40 CA         28.7124   31.4357   -0.6962 C.3       6 UNK         0.0367 
     41 CB         29.7480   31.2796   -1.8338 C.3       6 UNK        -0.1929 
     42 C          29.1422   32.3960    0.4310 C.2       6 UNK         0.5070 
     43 O          28.3347   32.6699    1.3218 O.2       6 UNK        -0.5237 
     44 N          30.4012   32.8530    0.4162 N.am      7 UNK        -0.4739 
     45 CA         31.0429   33.5904    1.5073 C.3       7 UNK         0.0276 
     46 CB         32.2666   34.3422    0.9511 C.3       7 UNK        -0.1927 
     47 C          31.4128   32.6324    2.6571 C.2       7 UNK         0.5013 
     48 O          32.5948   32.3672    2.8841 O.2       7 UNK        -0.5193 
     49 N          30.3816   32.1164    3.3431 N.am      8 UNK        -0.4253 
     50 CA         30.4296   31.0510    4.3540 C.3       8 UNK         0.0242 
     51 CB         29.0325   30.8883    4.9752 C.3       8 UNK        -0.2000 
     52 C          31.4739   31.2457    5.4654 C.2       8 UNK         0.4948 
     53 O          32.0623   30.2637    5.9199 O.2       8 UNK        -0.5275 
     54 N          31.7154   32.5100    5.8425 N.am      9 UNK        -0.4246 
     55 CA         32.7236   32.9439    6.8128 C.3       9 UNK         0.0261 
     56 CB         32.6404   34.4698    6.9776 C.3       9 UNK        -0.1959 
     57 C          34.1644   32.5201    6.4710 C.2       9 UNK         0.5033 
     58 O          34.9694   32.3732    7.3919 O.2       9 UNK        -0.5390 
     59 N          34.4630   32.2795    5.1835 N.am      10 UNK        -0.4215 
     60 CA         35.7440   31.7369    4.7172 C.3       10 UNK         0.0240 
     61 CB         35.7822   31.7624    3.1808 C.3       10 UNK        -0.1982 
     62 C          36.0390   30.3154    5.2352 C.2       10 UNK         0.4970 
     63 O          37.2111   29.9461    5.3187 O.2       10 UNK        -0.4916 
     64 N          34.9884   29.5621    5.5854 N.am      11 UNK        -0.4279 
     65 CA         35.0662   28.2357    6.2132 C.3       11 UNK         0.1003 
     66 C          34.8389   28.2828    7.7532 C.2       11 UNK         0.5709 
     67 N          34.7713   29.4476    8.3902 N.am      11 UNK        -0.7358 
     68 O          34.7469   27.2389    8.3952 O.2       11 UNK        -0.4999 
     69 C69        34.1257   27.2223    5.5081 C.3       12 UNK        -0.0954 
     70 S70        34.5922   26.9687    3.7617 S.3       12 UNK        -0.2268 
     71 C71        33.1477   27.6423    2.8859 C.3       12 UNK         0.0203 
     72 H72        29.2804   19.3781    2.8632 H         1 UNK         0.0888 
     73 H73        29.1180   20.9260    3.6949 H         1 UNK         0.0888 
     74 H74        27.7051   19.8908    3.4732 H         1 UNK         0.0888 
     75 H75        29.4299   19.6048    0.6801 H         1 UNK         0.3017 
     76 H76        29.0382   20.0864   -1.4133 H         1 UNK         0.0873 
     77 H77        30.8948   21.5614   -0.8845 H         1 UNK         0.0745 
     78 H78        29.9467   22.1894   -2.1890 H         1 UNK         0.0745 
     79 H79        31.9949   23.3094    0.6192 H         1 UNK         0.0705 
     80 H80        30.8019   22.5274    1.6313 H         1 UNK         0.0705 
     81 H81        32.8973   25.3837    1.3931 H         1 UNK         0.1334 
     82 H82        30.8248   27.7316    4.3198 H         1 UNK         0.1417 
     83 H83        29.0161   24.1677    2.7540 H         1 UNK         0.1562 
     84 H84        28.6894   27.0356    5.1673 H         1 UNK         0.0748 
     85 H85        28.2196   25.3641    4.9627 H         1 UNK         0.0748 
     86 H86        28.6177   28.6835    3.2054 H         1 UNK         0.0940 
     87 H87        27.0657   29.0226    2.4880 H         1 UNK         0.0940 
     88 H88        29.2712   27.2976    1.2332 H         1 UNK         0.0703 
     89 H89        26.5584   27.2812    0.5782 H         1 UNK         0.3081 
     90 H90        25.8255   26.8455   -1.8834 H         1 UNK         0.0719 
     91 H91        27.8872   24.8173   -2.8885 H         1 UNK         0.0809 
     92 H92        26.2325   24.9595   -3.4787 H         1 UNK         0.0809 
     93 H93        27.3703   26.2768   -3.7217 H         1 UNK         0.0809 
     94 H94        26.4829   24.1460   -0.9489 H         1 UNK         0.2990 
     95 H95        25.6426   24.1144    1.9339 H         1 UNK         0.0690 
     96 H96        22.7256   24.2243    1.0094 H         1 UNK         0.0788 
     97 H97        23.4300   25.0711    2.3767 H         1 UNK         0.0788 
     98 H98        23.3082   23.3210    2.4083 H         1 UNK         0.0788 
     99 H99        25.9226   22.2550    0.8509 H         1 UNK         0.2993 
    100 H100       24.3974   20.1294   -0.4625 H         1 UNK         0.0949 
    101 H101       25.0026   21.3613   -3.2034 H         1 UNK         0.0767 
    102 H102       24.8973   19.6321   -2.8742 H         1 UNK         0.0767 
    103 H103       23.4806   20.6508   -2.6883 H         1 UNK         0.0767 
    104 H104       26.5825   19.8550   -0.2161 H         1 UNK         0.3013 
    105 H105       27.3855   29.8419   -0.3014 H         1 UNK         0.3121 
    106 H106       27.8062   31.8617   -1.1295 H         1 UNK         0.0774 
    107 H107       29.9815   32.2421   -2.2909 H         1 UNK         0.0815 
    108 H108       30.6827   30.8371   -1.4875 H         1 UNK         0.0815 
    109 H109       29.3599   30.6386   -2.6255 H         1 UNK         0.0815 
    110 H110       31.0088   32.5344   -0.3248 H         1 UNK         0.2987 
    111 H111       30.3437   34.3315    1.9012 H         1 UNK         0.0949 
    112 H112       33.0034   33.6599    0.5252 H         1 UNK         0.0806 
    113 H113       31.9777   35.0513    0.1751 H         1 UNK         0.0806 
    114 H114       32.7656   34.9096    1.7380 H         1 UNK         0.0806 
    115 H115       29.4577   32.3747    3.0120 H         1 UNK         0.3010 
    116 H116       30.6855   30.1330    3.8220 H         1 UNK         0.0829 
    117 H117       28.9954   30.0152    5.6285 H         1 UNK         0.0813 
    118 H118       28.7560   31.7562    5.5754 H         1 UNK         0.0813 
    119 H119       28.2632   30.7601    4.2143 H         1 UNK         0.0813 
    120 H120       31.1810   33.2392    5.3931 H         1 UNK         0.3038 
    121 H121       32.4713   32.4802    7.7686 H         1 UNK         0.0769 
    122 H122       33.3622   34.8226    7.7159 H         1 UNK         0.0811 
    123 H123       31.6532   34.7803    7.3203 H         1 UNK         0.0811 
    124 H124       32.8518   34.9890    6.0418 H         1 UNK         0.0811 
    125 H125       33.7399   32.3965    4.4767 H         1 UNK         0.3204 
    126 H126       36.5346   32.3913    5.0903 H         1 UNK         0.0748 
    127 H127       36.7520   31.4298    2.8082 H         1 UNK         0.0771 
    128 H128       35.0250   31.1062    2.7493 H         1 UNK         0.0771 
    129 H129       35.6130   32.7678    2.7944 H         1 UNK         0.0771 
    130 H130       34.0538   29.9521    5.5265 H         1 UNK         0.2980 
    131 H131       36.0809   27.8496    6.1027 H         1 UNK         0.0545 
    132 H132       34.8778   30.3247    7.8966 H         1 UNK         0.3459 
    133 H133       34.6327   29.4496    9.3880 H         1 UNK         0.3459 
    134 H134       34.1711   26.2468    5.9951 H         1 UNK         0.0616 
    135 H135       33.0876   27.5504    5.5798 H         1 UNK         0.0616 
    136 H136       33.4346   27.8704    1.8584 H         1 UNK         0.0634 
    137 H137       32.8523   28.5920    3.3358 H         1 UNK         0.0634 
@<TRIPOS>BOND
     1    1    2 1    
     2    1   72 1    
     3    1   73 1    
     4    1   74 1    
     5    2    3 2    
     6    2    4 am   BACKBONE|DICT|INTERRES
     7    4    5 1    
     8    4   75 1    
     9    5    6 1    
    10    5   35 1    
    11    5   76 1    
    12    6    7 1    
    13    6   77 1    
    14    6   78 1    
    15    7    8 1    
    16    8    9 1    
    17    8   79 1    
    18    8   80 1    
    19    9   10 ar   
    20    9   14 ar   
    21   10   11 ar   
    22   10   81 1    
    23   11   12 ar   
    24   11   71 1    
    25   12   13 ar   
    26   12   82 1    
    27   13   14 ar   
    28   13   15 1    
    29   14   83 1    
    30   15   16 1    
    31   15   84 1    
    32   15   85 1    
    33   16   17 1    
    34   17   18 1    
    35   17   86 1    
    36   17   87 1    
    37   18   19 1    
    38   18   37 1    
    39   18   88 1    
    40   19   20 am   BACKBONE|DICT|INTERRES
    41   19   89 1    
    42   20   21 2    
    43   20   22 1    
    44   22   23 1    
    45   22   24 1    
    46   22   90 1    
    47   23   91 1    
    48   23   92 1    
    49   23   93 1    
    50   24   25 am   BACKBONE|DICT|INTERRES
    51   24   94 1    
    52   25   26 2    
    53   25   27 1    
    54   27   28 1    
    55   27   29 1    
    56   27   95 1    
    57   28   96 1    
    58   28   97 1    
    59   28   98 1    
    60   29   30 am   BACKBONE|DICT|INTERRES
    61   29   99 1    
    62   30   31 2    
    63   30   32 1    
    64   32   33 1    
    65   32   34 1    
    66   32  100 1    
    67   33  101 1    
    68   33  102 1    
    69   33  103 1    
    70   34   35 am   BACKBONE|DICT|INTERRES
    71   34  104 1    
    72   35   36 2    
    73   37   38 2    
    74   37   39 am   BACKBONE|DICT|INTERRES
    75   39   40 1    
    76   39  105 1    
    77   40   41 1    
    78   40   42 1    
    79   40  106 1    
    80   41  107 1    
    81   41  108 1    
    82   41  109 1    
    83   42   43 2    
    84   42   44 am   BACKBONE|DICT|INTERRES
    85   44   45 1    
    86   44  110 1    
    87   45   46 1    
    88   45   47 1    
    89   45  111 1    
    90   46  112 1    
    91   46  113 1    
    92   46  114 1    
    93   47   48 2    
    94   47   49 am   BACKBONE|DICT|INTERRES
    95   49   50 1    
    96   49  115 1    
    97   50   51 1    
    98   50   52 1    
    99   50  116 1    
   100   51  117 1    
   101   51  118 1    
   102   51  119 1    
   103   52   53 2    
   104   52   54 am   BACKBONE|DICT|INTERRES
   105   54   55 1    
   106   54  120 1    
   107   55   56 1    
   108   55   57 1    
   109   55  121 1    
   110   56  122 1    
   111   56  123 1    
   112   56  124 1    
   113   57   58 2    
   114   57   59 am   BACKBONE|DICT|INTERRES
   115   59   60 1    
   116   59  125 1    
   117   60   61 1    
   118   60   62 1    
   119   60  126 1    
   120   61  127 1    
   121   61  128 1    
   122   61  129 1    
   123   62   63 2    
   124   62   64 am   BACKBONE|DICT|INTERRES
   125   64   65 1    
   126   64  130 1    
   127   65   66 1    
   128   65   69 1    
   129   65  131 1    
   130   66   67 am   BACKBONE|DICT|INTERRES
   131   66   68 2    
   132   67  132 1    
   133   67  133 1    
   134   69   70 1    
   135   69  134 1    
   136   69  135 1    
   137   70   71 1    
   138   71  136 1    
   139   71  137 1    
@<TRIPOS>SUBSTRUCTURE
     1 UNK         1 GROUP             0       ****    0 ROOT    
