@<TRIPOS>MOLECULE
3R136
137   139    1
SMALL
USER_CHARGES


@<TRIPOS>ATOM
      1 CA         28.1337   21.3708    1.7823 C.3       0 UNK        -0.1979 
      2 C          27.8027   22.0186    0.4466 C.2       0 UNK         0.4864 
      3 O          26.7472   21.7414   -0.1254 O.2       0 UNK        -0.5359 
      4 N          28.6903   22.8871   -0.0571 N.am      1 UNK        -0.4318 
      5 CA         28.4967   23.6706   -1.2817 C.3       1 UNK         0.0824 
      6 C6         29.7882   24.3948   -1.7424 C.3       12 UNK        -0.0944 
      7 S7         30.6280   25.3271   -0.4194 S.3       12 UNK        -0.2672 
      8 C8         32.0135   24.2170   -0.0086 C.3       12 UNK         0.0333 
      9 C9         32.4097   24.4128    1.4433 C.ar      12 UNK        -0.0807 
     10 C10        33.4519   25.2770    1.7893 C.ar      12 UNK        -0.0894 
     11 C11        33.7340   25.5414    3.1328 C.ar      12 UNK        -0.0804 
     12 C12        32.9858   24.9094    4.1310 C.ar      12 UNK        -0.0824 
     13 C13        31.9422   24.0428    3.7945 C.ar      12 UNK        -0.0762 
     14 C14        31.6802   23.7760    2.4497 C.ar      12 UNK        -0.0782 
     15 C15        31.0503   23.4563    4.8815 C.3       12 UNK         0.0230 
     16 S16        29.2884   23.8995    4.6658 S.3       12 UNK        -0.2608 
     17 C17        29.3487   25.7027    4.3604 C.3       12 UNK        -0.0989 
     18 CA         28.8234   26.0551    2.9373 C.3       5 UNK         0.0716 
     19 N          27.3932   25.7669    2.7406 N.am      5 UNK        -0.4135 
     20 C          26.3751   26.3348    3.4089 C.2       4 UNK         0.5031 
     21 O          26.5238   27.0995    4.3628 O.2       4 UNK        -0.5229 
     22 CA         24.9386   26.0387    2.9500 C.3       4 UNK         0.0329 
     23 CB         24.2859   27.3013    2.3574 C.3       4 UNK        -0.2001 
     24 N          24.8325   24.9554    1.9702 N.am      4 UNK        -0.4303 
     25 C          23.8654   24.0247    1.9757 C.2       3 UNK         0.5044 
     26 O          23.0563   23.8896    2.8956 O.2       3 UNK        -0.5152 
     27 CA         23.7685   23.0939    0.7463 C.3       3 UNK         0.0319 
     28 CB         22.3196   22.6556    0.4430 C.3       3 UNK        -0.2001 
     29 N          24.4154   23.6413   -0.4535 N.am      3 UNK        -0.4354 
     30 C          24.1098   24.7788   -1.1039 C.2       2 UNK         0.4964 
     31 O          23.1157   25.4606   -0.8521 O.2       2 UNK        -0.5047 
     32 CA         25.0952   25.2649   -2.1916 C.3       2 UNK         0.0288 
     33 CB         25.2522   26.8003   -2.1738 C.3       2 UNK        -0.2113 
     34 N          26.4131   24.6123   -2.1447 N.am      2 UNK        -0.4145 
     35 C          27.2939   24.6257   -1.1320 C.2       1 UNK         0.5006 
     36 O          27.1491   25.2777   -0.0901 O.2       1 UNK        -0.5103 
     37 C          29.1218   27.5072    2.5013 C.2       5 UNK         0.5055 
     38 O          29.6536   28.3012    3.2768 O.2       5 UNK        -0.5220 
     39 N          28.6995   27.8388    1.2729 N.am      6 UNK        -0.4450 
     40 CA         28.6110   29.2074    0.7561 C.3       6 UNK         0.0367 
     41 CB         27.3814   29.2863   -0.1661 C.3       6 UNK        -0.1929 
     42 C          29.8685   29.7129    0.0220 C.2       6 UNK         0.5070 
     43 O          29.8142   30.8074   -0.5406 O.2       6 UNK        -0.5237 
     44 N          30.9574   28.9300   -0.0071 N.am      7 UNK        -0.4739 
     45 CA         32.1718   29.2197   -0.7864 C.3       7 UNK         0.0276 
     46 CB         33.1565   28.0478   -0.6716 C.3       7 UNK        -0.1927 
     47 C          32.8928   30.5336   -0.4319 C.2       7 UNK         0.5013 
     48 O          33.4687   31.1568   -1.3256 O.2       7 UNK        -0.5193 
     49 N          32.8616   30.9283    0.8449 N.am      8 UNK        -0.4253 
     50 CA         33.4810   32.1439    1.3655 C.3       8 UNK         0.0242 
     51 CB         34.9972   31.9291    1.5466 C.3       8 UNK        -0.2000 
     52 C          32.8247   32.4983    2.7011 C.2       8 UNK         0.4948 
     53 O          32.2345   31.6265    3.3405 O.2       8 UNK        -0.5275 
     54 N          32.9893   33.7546    3.1363 N.am      9 UNK        -0.4246 
     55 CA         32.4992   34.2574    4.4273 C.3       9 UNK         0.0261 
     56 CB         32.6908   35.7820    4.4834 C.3       9 UNK        -0.1959 
     57 C          33.1552   33.5862    5.6511 C.2       9 UNK         0.5033 
     58 O          32.5567   33.5773    6.7273 O.2       9 UNK        -0.5390 
     59 N          34.3630   33.0359    5.4654 N.am      10 UNK        -0.4215 
     60 CA         35.1002   32.2664    6.4681 C.3       10 UNK         0.0240 
     61 CB         36.5859   32.2302    6.0717 C.3       10 UNK        -0.1982 
     62 C          34.5653   30.8345    6.6637 C.2       10 UNK         0.4970 
     63 O          34.8626   30.2322    7.6965 O.2       10 UNK        -0.4916 
     64 N          33.8222   30.3008    5.6843 N.am      11 UNK        -0.4279 
     65 CA         33.2311   28.9569    5.7355 C.3       11 UNK         0.1003 
     66 C          32.0126   28.8837    6.6962 C.2       11 UNK         0.5709 
     67 N          31.7632   27.7233    7.2893 N.am      11 UNK        -0.7358 
     68 O          31.2796   29.8514    6.8920 O.2       11 UNK        -0.4999 
     69 C69        32.8543   28.4445    4.3237 C.3       12 UNK        -0.0954 
     70 S70        34.2947   28.2691    3.2154 S.3       12 UNK        -0.2268 
     71 C71        34.8154   26.5449    3.5088 C.3       12 UNK         0.0203 
     72 H72        29.1952   21.4383    2.0159 H         1 UNK         0.0888 
     73 H73        27.5745   21.8556    2.5823 H         1 UNK         0.0888 
     74 H74        27.8617   20.3158    1.7665 H         1 UNK         0.0888 
     75 H75        29.5240   23.1141    0.4610 H         1 UNK         0.3017 
     76 H76        28.2448   22.9513   -2.0644 H         1 UNK         0.0873 
     77 H77        29.5745   25.0811   -2.5643 H         1 UNK         0.0745 
     78 H78        30.4851   23.6648   -2.1569 H         1 UNK         0.0745 
     79 H79        31.7327   23.1755   -0.1723 H         1 UNK         0.0705 
     80 H80        32.8534   24.4215   -0.6743 H         1 UNK         0.0705 
     81 H81        34.0211   25.7718    1.0157 H         1 UNK         0.1334 
     82 H82        33.1885   25.1280    5.1703 H         1 UNK         0.1417 
     83 H83        30.8639   23.1187    2.1919 H         1 UNK         0.1562 
     84 H84        31.3722   23.7917    5.8687 H         1 UNK         0.0748 
     85 H85        31.1470   22.3699    4.8785 H         1 UNK         0.0748 
     86 H86        30.3695   26.0608    4.4918 H         1 UNK         0.0940 
     87 H87        28.7738   26.2095    5.1356 H         1 UNK         0.0940 
     88 H88        29.3575   25.4240    2.2279 H         1 UNK         0.0703 
     89 H89        27.1829   25.2164    1.9176 H         1 UNK         0.3081 
     90 H90        24.3945   25.7698    3.8578 H         1 UNK         0.0719 
     91 H91        24.3476   28.1429    3.0487 H         1 UNK         0.0809 
     92 H92        24.7691   27.6025    1.4276 H         1 UNK         0.0809 
     93 H93        23.2297   27.1361    2.1436 H         1 UNK         0.0809 
     94 H94        25.4447   25.0056    1.1644 H         1 UNK         0.2990 
     95 H95        24.3309   22.1974    1.0098 H         1 UNK         0.0690 
     96 H96        22.2774   22.0010   -0.4275 H         1 UNK         0.0788 
     97 H97        21.6679   23.5090    0.2540 H         1 UNK         0.0788 
     98 H98        21.8939   22.1034    1.2816 H         1 UNK         0.0788 
     99 H99        25.2546   23.1424   -0.7293 H         1 UNK         0.2993 
    100 H100       24.6491   24.9864   -3.1476 H         1 UNK         0.0949 
    101 H101       25.5686   27.1582   -1.1944 H         1 UNK         0.0767 
    102 H102       25.9825   27.1371   -2.9096 H         1 UNK         0.0767 
    103 H103       24.3077   27.2936   -2.4068 H         1 UNK         0.0767 
    104 H104       26.6227   24.0276   -2.9428 H         1 UNK         0.3013 
    105 H105       28.2985   27.1118    0.6916 H         1 UNK         0.3121 
    106 H106       28.4429   29.8896    1.5923 H         1 UNK         0.0774 
    107 H107       27.5016   28.6547   -1.0470 H         1 UNK         0.0815 
    108 H108       26.4749   28.9764    0.3528 H         1 UNK         0.0815 
    109 H109       27.2134   30.3054   -0.5169 H         1 UNK         0.0815 
    110 H110       30.9172   28.0385    0.4669 H         1 UNK         0.2987 
    111 H111       31.8677   29.3012   -1.8322 H         1 UNK         0.0949 
    112 H112       32.7445   27.1336   -1.0947 H         1 UNK         0.0806 
    113 H113       34.0820   28.2560   -1.2106 H         1 UNK         0.0806 
    114 H114       33.4215   27.8601    0.3676 H         1 UNK         0.0806 
    115 H115       32.3390   30.3929    1.5282 H         1 UNK         0.3010 
    116 H116       33.3023   32.9630    0.6654 H         1 UNK         0.0829 
    117 H117       35.2071   31.1200    2.2475 H         1 UNK         0.0813 
    118 H118       35.4833   32.8280    1.9273 H         1 UNK         0.0813 
    119 H119       35.4812   31.6824    0.6016 H         1 UNK         0.0813 
    120 H120       33.4887   34.4127    2.5542 H         1 UNK         0.3038 
    121 H121       31.4290   34.0452    4.4802 H         1 UNK         0.0769 
    122 H122       32.1550   36.2804    3.6753 H         1 UNK         0.0811 
    123 H123       33.7431   36.0606    4.4130 H         1 UNK         0.0811 
    124 H124       32.3087   36.1889    5.4208 H         1 UNK         0.0811 
    125 H125       34.7845   33.1151    4.5521 H         1 UNK         0.3204 
    126 H126       35.0157   32.7802    7.4283 H         1 UNK         0.0748 
    127 H127       36.7371   31.7292    5.1144 H         1 UNK         0.0771 
    128 H128       37.0018   33.2351    5.9959 H         1 UNK         0.0771 
    129 H129       37.1759   31.6936    6.8163 H         1 UNK         0.0771 
    130 H130       33.5435   30.8685    4.8944 H         1 UNK         0.2980 
    131 H131       33.9923   28.2828    6.1337 H         1 UNK         0.0545 
    132 H132       32.3603   26.9245    7.1502 H         1 UNK         0.3459 
    133 H133       30.9716   27.6545    7.9091 H         1 UNK         0.3459 
    134 H134       32.1490   29.1271    3.8508 H         1 UNK         0.0616 
    135 H135       32.3265   27.4949    4.3843 H         1 UNK         0.0616 
    136 H136       35.7131   26.3449    2.9223 H         1 UNK         0.0634 
    137 H137       35.1025   26.4327    4.5554 H         1 UNK         0.0634 
@<TRIPOS>BOND
     1    1    2 1    
     2    1   72 1    
     3    1   73 1    
     4    1   74 1    
     5    2    3 2    
     6    2    4 am   BACKBONE|DICT|INTERRES
     7    4    5 1    
     8    4   75 1    
     9    5    6 1    
    10    5   35 1    
    11    5   76 1    
    12    6    7 1    
    13    6   77 1    
    14    6   78 1    
    15    7    8 1    
    16    8    9 1    
    17    8   79 1    
    18    8   80 1    
    19    9   10 ar   
    20    9   14 ar   
    21   10   11 ar   
    22   10   81 1    
    23   11   12 ar   
    24   11   71 1    
    25   12   13 ar   
    26   12   82 1    
    27   13   14 ar   
    28   13   15 1    
    29   14   83 1    
    30   15   16 1    
    31   15   84 1    
    32   15   85 1    
    33   16   17 1    
    34   17   18 1    
    35   17   86 1    
    36   17   87 1    
    37   18   19 1    
    38   18   37 1    
    39   18   88 1    
    40   19   20 am   BACKBONE|DICT|INTERRES
    41   19   89 1    
    42   20   21 2    
    43   20   22 1    
    44   22   23 1    
    45   22   24 1    
    46   22   90 1    
    47   23   91 1    
    48   23   92 1    
    49   23   93 1    
    50   24   25 am   BACKBONE|DICT|INTERRES
    51   24   94 1    
    52   25   26 2    
    53   25   27 1    
    54   27   28 1    
    55   27   29 1    
    56   27   95 1    
    57   28   96 1    
    58   28   97 1    
    59   28   98 1    
    60   29   30 am   BACKBONE|DICT|INTERRES
    61   29   99 1    
    62   30   31 2    
    63   30   32 1    
    64   32   33 1    
    65   32   34 1    
    66   32  100 1    
    67   33  101 1    
    68   33  102 1    
    69   33  103 1    
    70   34   35 am   BACKBONE|DICT|INTERRES
    71   34  104 1    
    72   35   36 2    
    73   37   38 2    
    74   37   39 am   BACKBONE|DICT|INTERRES
    75   39   40 1    
    76   39  105 1    
    77   40   41 1    
    78   40   42 1    
    79   40  106 1    
    80   41  107 1    
    81   41  108 1    
    82   41  109 1    
    83   42   43 2    
    84   42   44 am   BACKBONE|DICT|INTERRES
    85   44   45 1    
    86   44  110 1    
    87   45   46 1    
    88   45   47 1    
    89   45  111 1    
    90   46  112 1    
    91   46  113 1    
    92   46  114 1    
    93   47   48 2    
    94   47   49 am   BACKBONE|DICT|INTERRES
    95   49   50 1    
    96   49  115 1    
    97   50   51 1    
    98   50   52 1    
    99   50  116 1    
   100   51  117 1    
   101   51  118 1    
   102   51  119 1    
   103   52   53 2    
   104   52   54 am   BACKBONE|DICT|INTERRES
   105   54   55 1    
   106   54  120 1    
   107   55   56 1    
   108   55   57 1    
   109   55  121 1    
   110   56  122 1    
   111   56  123 1    
   112   56  124 1    
   113   57   58 2    
   114   57   59 am   BACKBONE|DICT|INTERRES
   115   59   60 1    
   116   59  125 1    
   117   60   61 1    
   118   60   62 1    
   119   60  126 1    
   120   61  127 1    
   121   61  128 1    
   122   61  129 1    
   123   62   63 2    
   124   62   64 am   BACKBONE|DICT|INTERRES
   125   64   65 1    
   126   64  130 1    
   127   65   66 1    
   128   65   69 1    
   129   65  131 1    
   130   66   67 am   BACKBONE|DICT|INTERRES
   131   66   68 2    
   132   67  132 1    
   133   67  133 1    
   134   69   70 1    
   135   69  134 1    
   136   69  135 1    
   137   70   71 1    
   138   71  136 1    
   139   71  137 1    
@<TRIPOS>SUBSTRUCTURE
     1 UNK         1 GROUP             0       ****    0 ROOT    
