@<TRIPOS>MOLECULE
3R136
137   139    1
SMALL
USER_CHARGES


@<TRIPOS>ATOM
      1 CA         29.3431   24.3983   -3.8144 C.3       0 UNK        -0.1979 
      2 C          28.9991   24.2362   -2.3427 C.2       0 UNK         0.4864 
      3 O          28.3302   25.0996   -1.7737 O.2       0 UNK        -0.5359 
      4 N          29.4302   23.1277   -1.7241 N.am      1 UNK        -0.4318 
      5 CA         29.2938   22.8073   -0.2920 C.3       1 UNK         0.0824 
      6 C6         30.0005   21.4760    0.0610 C.3       12 UNK        -0.0944 
      7 S7         31.7833   21.5223   -0.3248 S.3       12 UNK        -0.2672 
      8 C8         32.5296   21.5443    1.3366 C.3       12 UNK         0.0333 
      9 C9         32.2598   22.8451    2.0816 C.ar      12 UNK        -0.0807 
     10 C10        32.9416   24.0125    1.7235 C.ar      12 UNK        -0.0894 
     11 C11        32.7322   25.2003    2.4297 C.ar      12 UNK        -0.0804 
     12 C12        31.8360   25.2135    3.5016 C.ar      12 UNK        -0.0824 
     13 C13        31.1389   24.0584    3.8651 C.ar      12 UNK        -0.0762 
     14 C14        31.3553   22.8762    3.1492 C.ar      12 UNK        -0.0782 
     15 C15        30.1696   24.0755    5.0411 C.3       12 UNK         0.0230 
     16 S16        28.4439   24.2190    4.4765 S.3       12 UNK        -0.2608 
     17 C17        27.9315   25.8687    5.0720 C.3       12 UNK        -0.0989 
     18 CA         28.6993   27.0517    4.4337 C.3       5 UNK         0.0716 
     19 N          28.7831   26.9530    2.9728 N.am      5 UNK        -0.4135 
     20 C          29.4534   27.7930    2.1729 C.2       4 UNK         0.5031 
     21 O          30.1496   28.7230    2.5866 O.2       4 UNK        -0.5229 
     22 CA         29.2582   27.6242    0.6563 C.3       4 UNK         0.0329 
     23 CB         30.4409   26.8600    0.0462 C.3       4 UNK        -0.2001 
     24 N          27.9972   26.9913    0.2395 N.am      4 UNK        -0.4303 
     25 C          26.7588   27.3994    0.5630 C.2       3 UNK         0.5044 
     26 O          26.5290   28.2941    1.3786 O.2       3 UNK        -0.5152 
     27 CA         25.5730   26.7168   -0.1322 C.3       3 UNK         0.0319 
     28 CB         25.2665   27.4247   -1.4617 C.3       3 UNK        -0.2001 
     29 N          25.8135   25.2947   -0.3888 N.am      3 UNK        -0.4354 
     30 C          25.0402   24.2935    0.0591 C.2       2 UNK         0.4964 
     31 O          24.0369   24.4608    0.7537 O.2       2 UNK        -0.5047 
     32 CA         25.4278   22.8541   -0.3388 C.3       2 UNK         0.0288 
     33 CB         24.5917   22.3874   -1.5420 C.3       2 UNK        -0.2113 
     34 N          26.8483   22.6948   -0.6555 N.am      2 UNK        -0.4145 
     35 C          27.8420   22.7996    0.2381 C.2       1 UNK         0.5006 
     36 O          27.6469   22.9132    1.4470 O.2       1 UNK        -0.5103 
     37 C          28.1294   28.4052    4.9199 C.2       5 UNK         0.5055 
     38 O          28.4695   28.8315    6.0233 O.2       5 UNK        -0.5220 
     39 N          27.3136   29.0662    4.0858 N.am      6 UNK        -0.4450 
     40 CA         26.8650   30.4441    4.2728 C.3       6 UNK         0.0367 
     41 CB         25.3280   30.4892    4.2619 C.3       6 UNK        -0.1929 
     42 C          27.4411   31.3510    3.1751 C.2       6 UNK         0.5070 
     43 O          27.9943   32.4043    3.4902 O.2       6 UNK        -0.5237 
     44 N          27.3129   30.9328    1.9069 N.am      7 UNK        -0.4739 
     45 CA         27.6040   31.7437    0.7183 C.3       7 UNK         0.0276 
     46 CB         27.0775   31.0221   -0.5330 C.3       7 UNK        -0.1927 
     47 C          29.0809   32.1313    0.5342 C.2       7 UNK         0.5013 
     48 O          29.3485   33.1679   -0.0744 O.2       7 UNK        -0.5193 
     49 N          30.0036   31.3184    1.0644 N.am      8 UNK        -0.4253 
     50 CA         31.4444   31.5836    1.0678 C.3       8 UNK         0.0242 
     51 CB         32.1849   30.3808    0.4519 C.3       8 UNK        -0.2000 
     52 C          31.9470   31.8872    2.4896 C.2       8 UNK         0.4948 
     53 O          33.1441   31.7437    2.7418 O.2       8 UNK        -0.5275 
     54 N          31.0362   32.2550    3.4089 N.am      9 UNK        -0.4246 
     55 CA         31.2792   32.5352    4.8320 C.3       9 UNK         0.0261 
     56 CB         32.0483   33.8633    4.9948 C.3       9 UNK        -0.1959 
     57 C          31.9518   31.3620    5.5753 C.2       9 UNK         0.5033 
     58 O          32.7819   31.5855    6.4584 O.2       9 UNK        -0.5390 
     59 N          31.6048   30.1327    5.1663 N.am      10 UNK        -0.4215 
     60 CA         32.1689   28.8546    5.6073 C.3       10 UNK         0.0240 
     61 CB         31.9124   28.6063    7.1095 C.3       10 UNK        -0.1982 
     62 C          33.6396   28.6270    5.2036 C.2       10 UNK         0.4970 
     63 O          34.2679   27.7306    5.7669 O.2       10 UNK        -0.4916 
     64 N          34.1427   29.4030    4.2282 N.am      11 UNK        -0.4279 
     65 CA         35.4727   29.3159    3.5950 C.3       11 UNK         0.1003 
     66 C          36.7072   29.2702    4.5483 C.2       11 UNK         0.5709 
     67 N          36.6146   29.8108    5.7576 N.am      11 UNK        -0.7358 
     68 O          37.7753   28.7854    4.1809 O.2       11 UNK        -0.4999 
     69 C69        35.5226   28.3205    2.3945 C.3       12 UNK        -0.0954 
     70 S70        35.1094   26.5828    2.7771 S.3       12 UNK        -0.2268 
     71 C71        33.4567   26.4752    2.0278 C.3       12 UNK         0.0203 
     72 H72        28.4312   24.4760   -4.4056 H         1 UNK         0.0888 
     73 H73        29.9241   25.3081   -3.9626 H         1 UNK         0.0888 
     74 H74        29.9246   23.5579   -4.1929 H         1 UNK         0.0888 
     75 H75        29.9764   22.4602   -2.2506 H         1 UNK         0.3017 
     76 H76        29.8007   23.6045    0.2547 H         1 UNK         0.0873 
     77 H77        29.8718   21.2348    1.1180 H         1 UNK         0.0745 
     78 H78        29.5525   20.6479   -0.4916 H         1 UNK         0.0745 
     79 H79        32.1702   20.6859    1.9065 H         1 UNK         0.0705 
     80 H80        33.6075   21.4088    1.2360 H         1 UNK         0.0705 
     81 H81        33.6396   23.9944    0.8973 H         1 UNK         0.1334 
     82 H82        31.6844   26.1271    4.0524 H         1 UNK         0.1417 
     83 H83        30.8222   21.9784    3.4315 H         1 UNK         0.1562 
     84 H84        30.4149   24.8807    5.7349 H         1 UNK         0.0748 
     85 H85        30.2738   23.1502    5.6096 H         1 UNK         0.0748 
     86 H86        28.0376   25.8897    6.1587 H         1 UNK         0.0940 
     87 H87        26.8617   25.9631    4.8744 H         1 UNK         0.0940 
     88 H88        29.7197   27.0063    4.8056 H         1 UNK         0.0703 
     89 H89        28.2532   26.2052    2.5486 H         1 UNK         0.3081 
     90 H90        29.2591   28.6266    0.2270 H         1 UNK         0.0719 
     91 H91        30.5145   25.8465    0.4405 H         1 UNK         0.0809 
     92 H92        30.3584   26.7971   -1.0386 H         1 UNK         0.0809 
     93 H93        31.3813   27.3653    0.2604 H         1 UNK         0.0809 
     94 H94        28.0918   26.2673   -0.4718 H         1 UNK         0.2990 
     95 H95        24.7097   26.8458    0.5238 H         1 UNK         0.0690 
     96 H96        24.3778   27.0068   -1.9350 H         1 UNK         0.0788 
     97 H97        26.0943   27.3358   -2.1669 H         1 UNK         0.0788 
     98 H98        25.0803   28.4883   -1.3061 H         1 UNK         0.0788 
     99 H99        26.6327   25.0697   -0.9478 H         1 UNK         0.2993 
    100 H100       25.1967   22.2089    0.5118 H         1 UNK         0.0949 
    101 H101       24.7969   21.3453   -1.7883 H         1 UNK         0.0767 
    102 H102       23.5245   22.4638   -1.3286 H         1 UNK         0.0767 
    103 H103       24.7904   22.9895   -2.4297 H         1 UNK         0.0767 
    104 H104       27.0933   22.6019   -1.6305 H         1 UNK         0.3013 
    105 H105       27.0864   28.6404    3.1911 H         1 UNK         0.3121 
    106 H106       27.2077   30.8357    5.2330 H         1 UNK         0.0774 
    107 H107       24.9150   30.0960    3.3319 H         1 UNK         0.0815 
    108 H108       24.9662   31.5121    4.3750 H         1 UNK         0.0815 
    109 H109       24.9122   29.9060    5.0835 H         1 UNK         0.0815 
    110 H110       26.8819   30.0274    1.7305 H         1 UNK         0.2987 
    111 H111       27.0464   32.6770    0.8247 H         1 UNK         0.0949 
    112 H112       27.5971   30.0806   -0.7089 H         1 UNK         0.0806 
    113 H113       26.0121   30.8071   -0.4487 H         1 UNK         0.0806 
    114 H114       27.2125   31.6374   -1.4237 H         1 UNK         0.0806 
    115 H115       29.7055   30.4947    1.5752 H         1 UNK         0.3010 
    116 H116       31.6746   32.4624    0.4623 H         1 UNK         0.0829 
    117 H117       32.1421   29.5050    1.0982 H         1 UNK         0.0813 
    118 H118       31.7676   30.1073   -0.5172 H         1 UNK         0.0813 
    119 H119       33.2393   30.6118    0.2960 H         1 UNK         0.0813 
    120 H120       30.0675   32.3413    3.1180 H         1 UNK         0.3038 
    121 H121       30.2975   32.6613    5.2913 H         1 UNK         0.0769 
    122 H122       32.1268   34.1450    6.0455 H         1 UNK         0.0811 
    123 H123       33.0626   33.7932    4.6001 H         1 UNK         0.0811 
    124 H124       31.5431   34.6799    4.4792 H         1 UNK         0.0811 
    125 H125       30.9357   30.0617    4.4093 H         1 UNK         0.3204 
    126 H126       31.6110   28.1039    5.0561 H         1 UNK         0.0748 
    127 H127       32.1606   27.5808    7.3855 H         1 UNK         0.0771 
    128 H128       32.5129   29.2646    7.7377 H         1 UNK         0.0771 
    129 H129       30.8646   28.7626    7.3651 H         1 UNK         0.0771 
    130 H130       33.5650   30.1515    3.8600 H         1 UNK         0.2980 
    131 H131       35.5866   30.2990    3.1369 H         1 UNK         0.0545 
    132 H132       35.7441   30.2116    6.0702 H         1 UNK         0.3459 
    133 H133       37.4146   29.7939    6.3698 H         1 UNK         0.3459 
    134 H134       34.8446   28.6760    1.6172 H         1 UNK         0.0616 
    135 H135       36.5083   28.3349    1.9268 H         1 UNK         0.0616 
    136 H136       33.5555   26.5225    0.9424 H         1 UNK         0.0634 
    137 H137       32.8680   27.3448    2.3253 H         1 UNK         0.0634 
@<TRIPOS>BOND
     1    1    2 1    
     2    1   72 1    
     3    1   73 1    
     4    1   74 1    
     5    2    3 2    
     6    2    4 am   BACKBONE|DICT|INTERRES
     7    4    5 1    
     8    4   75 1    
     9    5    6 1    
    10    5   35 1    
    11    5   76 1    
    12    6    7 1    
    13    6   77 1    
    14    6   78 1    
    15    7    8 1    
    16    8    9 1    
    17    8   79 1    
    18    8   80 1    
    19    9   10 ar   
    20    9   14 ar   
    21   10   11 ar   
    22   10   81 1    
    23   11   12 ar   
    24   11   71 1    
    25   12   13 ar   
    26   12   82 1    
    27   13   14 ar   
    28   13   15 1    
    29   14   83 1    
    30   15   16 1    
    31   15   84 1    
    32   15   85 1    
    33   16   17 1    
    34   17   18 1    
    35   17   86 1    
    36   17   87 1    
    37   18   19 1    
    38   18   37 1    
    39   18   88 1    
    40   19   20 am   BACKBONE|DICT|INTERRES
    41   19   89 1    
    42   20   21 2    
    43   20   22 1    
    44   22   23 1    
    45   22   24 1    
    46   22   90 1    
    47   23   91 1    
    48   23   92 1    
    49   23   93 1    
    50   24   25 am   BACKBONE|DICT|INTERRES
    51   24   94 1    
    52   25   26 2    
    53   25   27 1    
    54   27   28 1    
    55   27   29 1    
    56   27   95 1    
    57   28   96 1    
    58   28   97 1    
    59   28   98 1    
    60   29   30 am   BACKBONE|DICT|INTERRES
    61   29   99 1    
    62   30   31 2    
    63   30   32 1    
    64   32   33 1    
    65   32   34 1    
    66   32  100 1    
    67   33  101 1    
    68   33  102 1    
    69   33  103 1    
    70   34   35 am   BACKBONE|DICT|INTERRES
    71   34  104 1    
    72   35   36 2    
    73   37   38 2    
    74   37   39 am   BACKBONE|DICT|INTERRES
    75   39   40 1    
    76   39  105 1    
    77   40   41 1    
    78   40   42 1    
    79   40  106 1    
    80   41  107 1    
    81   41  108 1    
    82   41  109 1    
    83   42   43 2    
    84   42   44 am   BACKBONE|DICT|INTERRES
    85   44   45 1    
    86   44  110 1    
    87   45   46 1    
    88   45   47 1    
    89   45  111 1    
    90   46  112 1    
    91   46  113 1    
    92   46  114 1    
    93   47   48 2    
    94   47   49 am   BACKBONE|DICT|INTERRES
    95   49   50 1    
    96   49  115 1    
    97   50   51 1    
    98   50   52 1    
    99   50  116 1    
   100   51  117 1    
   101   51  118 1    
   102   51  119 1    
   103   52   53 2    
   104   52   54 am   BACKBONE|DICT|INTERRES
   105   54   55 1    
   106   54  120 1    
   107   55   56 1    
   108   55   57 1    
   109   55  121 1    
   110   56  122 1    
   111   56  123 1    
   112   56  124 1    
   113   57   58 2    
   114   57   59 am   BACKBONE|DICT|INTERRES
   115   59   60 1    
   116   59  125 1    
   117   60   61 1    
   118   60   62 1    
   119   60  126 1    
   120   61  127 1    
   121   61  128 1    
   122   61  129 1    
   123   62   63 2    
   124   62   64 am   BACKBONE|DICT|INTERRES
   125   64   65 1    
   126   64  130 1    
   127   65   66 1    
   128   65   69 1    
   129   65  131 1    
   130   66   67 am   BACKBONE|DICT|INTERRES
   131   66   68 2    
   132   67  132 1    
   133   67  133 1    
   134   69   70 1    
   135   69  134 1    
   136   69  135 1    
   137   70   71 1    
   138   71  136 1    
   139   71  137 1    
@<TRIPOS>SUBSTRUCTURE
     1 UNK         1 GROUP             0       ****    0 ROOT    
