@<TRIPOS>MOLECULE
3R136
137   139    1
SMALL
USER_CHARGES


@<TRIPOS>ATOM
      1 CA         26.3523   18.4668    2.7901 C.3       0 UNK        -0.1979 
      2 C          27.0807   19.6580    2.1845 C.2       0 UNK         0.4864 
      3 O          26.9224   20.7782    2.6727 O.2       0 UNK        -0.5359 
      4 N          27.8781   19.4170    1.1324 N.am      1 UNK        -0.4318 
      5 CA         28.6377   20.4127    0.3628 C.3       1 UNK         0.0824 
      6 C6         29.6429   21.2087    1.2514 C.3       12 UNK        -0.0944 
      7 S7         31.1046   21.8279    0.3462 S.3       12 UNK        -0.2672 
      8 C8         31.0677   23.6113    0.7248 C.3       12 UNK         0.0333 
      9 C9         31.4511   23.8946    2.1697 C.ar      12 UNK        -0.0807 
     10 C10        32.7956   23.8609    2.5483 C.ar      12 UNK        -0.0894 
     11 C11        33.1712   24.1251    3.8686 C.ar      12 UNK        -0.0804 
     12 C12        32.1873   24.4289    4.8138 C.ar      12 UNK        -0.0824 
     13 C13        30.8364   24.4558    4.4515 C.ar      12 UNK        -0.0762 
     14 C14        30.4743   24.1886    3.1269 C.ar      12 UNK        -0.0782 
     15 C15        29.7692   24.7280    5.5051 C.3       12 UNK         0.0230 
     16 S16        28.7478   26.1880    5.1292 S.3       12 UNK        -0.2608 
     17 C17        29.9624   27.5524    5.2579 C.3       12 UNK        -0.0989 
     18 CA         29.7223   28.6807    4.2224 C.3       5 UNK         0.0716 
     19 N          29.6658   28.1397    2.8626 N.am      5 UNK        -0.4135 
     20 C          29.5578   28.8290    1.7201 C.2       4 UNK         0.5031 
     21 O          29.5098   30.0556    1.6454 O.2       4 UNK        -0.5229 
     22 CA         29.3688   27.9897    0.4446 C.3       4 UNK         0.0329 
     23 CB         30.7331   27.5814   -0.1320 C.3       4 UNK        -0.2001 
     24 N          28.5457   26.7877    0.6366 N.am      4 UNK        -0.4303 
     25 C          27.3104   26.7500    1.1626 C.2       3 UNK         0.5044 
     26 O          26.7245   27.7463    1.5874 O.2       3 UNK        -0.5152 
     27 CA         26.6419   25.3642    1.2748 C.3       3 UNK         0.0319 
     28 CB         25.1009   25.4476    1.2982 C.3       3 UNK        -0.2001 
     29 N          27.1080   24.3986    0.2688 N.am      3 UNK        -0.4354 
     30 C          26.9689   24.4725   -1.0659 C.2       2 UNK         0.4964 
     31 O          26.3789   25.3866   -1.6419 O.2       2 UNK        -0.5047 
     32 CA         27.6336   23.3675   -1.9145 C.3       2 UNK         0.0288 
     33 CB         28.6612   23.9773   -2.8851 C.3       2 UNK        -0.2113 
     34 N          28.3085   22.3373   -1.1186 N.am      2 UNK        -0.4145 
     35 C          27.7124   21.3175   -0.4898 C.2       1 UNK         0.5006 
     36 O          26.5034   21.0869   -0.5783 O.2       1 UNK        -0.5103 
     37 C          28.5084   29.5555    4.6204 C.2       5 UNK         0.5055 
     38 O          28.6406   30.3741    5.5323 O.2       5 UNK        -0.5220 
     39 N          27.3526   29.3733    3.9628 N.am      6 UNK        -0.4450 
     40 CA         26.1589   30.1968    4.1631 C.3       6 UNK         0.0367 
     41 CB         24.9046   29.3329    3.9512 C.3       6 UNK        -0.1929 
     42 C          26.1336   31.4188    3.2286 C.2       6 UNK         0.5070 
     43 O          25.4305   32.3835    3.5313 O.2       6 UNK        -0.5237 
     44 N          26.8741   31.3654    2.1125 N.am      7 UNK        -0.4739 
     45 CA         26.9555   32.4394    1.1213 C.3       7 UNK         0.0276 
     46 CB         27.2080   31.8342   -0.2697 C.3       7 UNK        -0.1927 
     47 C          28.0440   33.4647    1.4724 C.2       7 UNK         0.5013 
     48 O          27.8353   34.6592    1.2548 O.2       7 UNK        -0.5193 
     49 N          29.1753   32.9930    2.0083 N.am      8 UNK        -0.4253 
     50 CA         30.3144   33.8044    2.4300 C.3       8 UNK         0.0242 
     51 CB         31.2465   34.0475    1.2281 C.3       8 UNK        -0.2000 
     52 C          31.0556   33.0777    3.5557 C.2       8 UNK         0.4948 
     53 O          30.8900   31.8694    3.7201 O.2       8 UNK        -0.5275 
     54 N          31.9038   33.8041    4.2924 N.am      9 UNK        -0.4246 
     55 CA         32.7412   33.2665    5.3711 C.3       9 UNK         0.0261 
     56 CB         33.1168   34.4144    6.3280 C.3       9 UNK        -0.1959 
     57 C          33.9764   32.5113    4.8322 C.2       9 UNK         0.5033 
     58 O          35.1070   32.8433    5.1958 O.2       9 UNK        -0.5390 
     59 N          33.7459   31.5222    3.9623 N.am      10 UNK        -0.4215 
     60 CA         34.7590   30.6986    3.3095 C.3       10 UNK         0.0240 
     61 CB         35.4054   31.4809    2.1488 C.3       10 UNK        -0.1982 
     62 C          34.1131   29.4057    2.7985 C.2       10 UNK         0.4970 
     63 O          32.8992   29.3622    2.5957 O.2       10 UNK        -0.4916 
     64 N          34.9496   28.3892    2.5699 N.am      11 UNK        -0.4279 
     65 CA         34.5629   27.0869    2.0018 C.3       11 UNK         0.1003 
     66 C          34.3687   27.0883    0.4563 C.2       11 UNK         0.5709 
     67 N          34.6332   28.1793   -0.2531 N.am      11 UNK        -0.7358 
     68 O          33.9592   26.0788   -0.1108 O.2       11 UNK        -0.4999 
     69 C69        35.5543   25.9795    2.4447 C.3       12 UNK        -0.0954 
     70 S70        35.4608   25.6654    4.2391 S.3       12 UNK        -0.2268 
     71 C71        34.6341   24.0438    4.2845 C.3       12 UNK         0.0203 
     72 H72        26.5910   17.5365    2.2749 H         1 UNK         0.0888 
     73 H73        26.6262   18.3533    3.8387 H         1 UNK         0.0888 
     74 H74        25.2748   18.6189    2.7333 H         1 UNK         0.0888 
     75 H75        27.9332   18.4736    0.7741 H         1 UNK         0.3017 
     76 H76        29.2150   19.8253   -0.3531 H         1 UNK         0.0873 
     77 H77        29.1399   22.0223    1.7745 H         1 UNK         0.0745 
     78 H78        30.0317   20.5599    2.0381 H         1 UNK         0.0745 
     79 H79        31.7666   24.1244    0.0618 H         1 UNK         0.0705 
     80 H80        30.0832   24.0195    0.4988 H         1 UNK         0.0705 
     81 H81        33.5473   23.6170    1.8103 H         1 UNK         0.1334 
     82 H82        32.4759   24.6254    5.8375 H         1 UNK         0.1417 
     83 H83        29.4293   24.2010    2.8513 H         1 UNK         0.1562 
     84 H84        30.2161   24.8564    6.4924 H         1 UNK         0.0748 
     85 H85        29.1181   23.8557    5.5768 H         1 UNK         0.0748 
     86 H86        30.9680   27.1545    5.1150 H         1 UNK         0.0940 
     87 H87        29.9503   27.9442    6.2771 H         1 UNK         0.0940 
     88 H88        30.5923   29.3384    4.2509 H         1 UNK         0.0703 
     89 H89        29.6639   27.1329    2.8076 H         1 UNK         0.3081 
     90 H90        28.8585   28.6190   -0.2874 H         1 UNK         0.0719 
     91 H91        31.2642   26.9013    0.5351 H         1 UNK         0.0809 
     92 H92        30.6292   27.0913   -1.1001 H         1 UNK         0.0809 
     93 H93        31.3720   28.4540   -0.2784 H         1 UNK         0.0809 
     94 H94        28.9311   25.9236    0.2911 H         1 UNK         0.2990 
     95 H95        26.9563   24.9655    2.2405 H         1 UNK         0.0690 
     96 H96        24.6516   24.4589    1.3914 H         1 UNK         0.0788 
     97 H97        24.7058   25.9134    0.3950 H         1 UNK         0.0788 
     98 H98        24.7540   26.0406    2.1455 H         1 UNK         0.0788 
     99 H99        27.5703   23.5803    0.6360 H         1 UNK         0.2993 
    100 H100       26.8429   22.8954   -2.5020 H         1 UNK         0.0949 
    101 H101       29.1025   23.2137   -3.5261 H         1 UNK         0.0767 
    102 H102       28.1947   24.7138   -3.5410 H         1 UNK         0.0767 
    103 H103       29.4712   24.4800   -2.3550 H         1 UNK         0.0767 
    104 H104       29.3124   22.4214   -1.0214 H         1 UNK         0.3013 
    105 H105       27.3009   28.6834    3.2183 H         1 UNK         0.3121 
    106 H106       26.1371   30.5664    5.1906 H         1 UNK         0.0774 
    107 H107       24.8197   28.9847    2.9214 H         1 UNK         0.0815 
    108 H108       24.0007   29.9006    4.1755 H         1 UNK         0.0815 
    109 H109       24.9088   28.4587    4.6024 H         1 UNK         0.0815 
    110 H110       27.4846   30.5701    1.9667 H         1 UNK         0.2987 
    111 H111       26.0001   32.9682    1.0861 H         1 UNK         0.0949 
    112 H112       28.1636   31.3115   -0.3196 H         1 UNK         0.0806 
    113 H113       26.4247   31.1267   -0.5423 H         1 UNK         0.0806 
    114 H114       27.2234   32.6120   -1.0342 H         1 UNK         0.0806 
    115 H115       29.2859   31.9916    2.1603 H         1 UNK         0.3010 
    116 H116       29.9564   34.7595    2.8205 H         1 UNK         0.0829 
    117 H117       30.7314   34.5771    0.4265 H         1 UNK         0.0813 
    118 H118       32.1093   34.6517    1.5106 H         1 UNK         0.0813 
    119 H119       31.6238   33.1087    0.8199 H         1 UNK         0.0813 
    120 H120       32.0243   34.7832    4.0751 H         1 UNK         0.3038 
    121 H121       32.1535   32.5440    5.9421 H         1 UNK         0.0769 
    122 H122       33.7142   35.1782    5.8287 H         1 UNK         0.0811 
    123 H123       33.6996   34.0446    7.1728 H         1 UNK         0.0811 
    124 H124       32.2289   34.8962    6.7379 H         1 UNK         0.0811 
    125 H125       32.7808   31.2917    3.7253 H         1 UNK         0.3204 
    126 H126       35.5225   30.4332    4.0440 H         1 UNK         0.0748 
    127 H127       36.1657   30.8846    1.6432 H         1 UNK         0.0771 
    128 H128       34.6654   31.7730    1.4022 H         1 UNK         0.0771 
    129 H129       35.8959   32.3877    2.5030 H         1 UNK         0.0771 
    130 H130       35.9338   28.5102    2.7576 H         1 UNK         0.2980 
    131 H131       33.5815   26.8281    2.4052 H         1 UNK         0.0545 
    132 H132       34.9623   29.0173    0.1960 H         1 UNK         0.3459 
    133 H133       34.4990   28.1591   -1.2514 H         1 UNK         0.3459 
    134 H134       36.5782   26.2644    2.1969 H         1 UNK         0.0616 
    135 H135       35.3751   25.0447    1.9128 H         1 UNK         0.0616 
    136 H136       34.7034   23.6474    5.2986 H         1 UNK         0.0634 
    137 H137       35.1748   23.3400    3.6498 H         1 UNK         0.0634 
@<TRIPOS>BOND
     1    1    2 1    
     2    1   72 1    
     3    1   73 1    
     4    1   74 1    
     5    2    3 2    
     6    2    4 am   BACKBONE|DICT|INTERRES
     7    4    5 1    
     8    4   75 1    
     9    5    6 1    
    10    5   35 1    
    11    5   76 1    
    12    6    7 1    
    13    6   77 1    
    14    6   78 1    
    15    7    8 1    
    16    8    9 1    
    17    8   79 1    
    18    8   80 1    
    19    9   10 ar   
    20    9   14 ar   
    21   10   11 ar   
    22   10   81 1    
    23   11   12 ar   
    24   11   71 1    
    25   12   13 ar   
    26   12   82 1    
    27   13   14 ar   
    28   13   15 1    
    29   14   83 1    
    30   15   16 1    
    31   15   84 1    
    32   15   85 1    
    33   16   17 1    
    34   17   18 1    
    35   17   86 1    
    36   17   87 1    
    37   18   19 1    
    38   18   37 1    
    39   18   88 1    
    40   19   20 am   BACKBONE|DICT|INTERRES
    41   19   89 1    
    42   20   21 2    
    43   20   22 1    
    44   22   23 1    
    45   22   24 1    
    46   22   90 1    
    47   23   91 1    
    48   23   92 1    
    49   23   93 1    
    50   24   25 am   BACKBONE|DICT|INTERRES
    51   24   94 1    
    52   25   26 2    
    53   25   27 1    
    54   27   28 1    
    55   27   29 1    
    56   27   95 1    
    57   28   96 1    
    58   28   97 1    
    59   28   98 1    
    60   29   30 am   BACKBONE|DICT|INTERRES
    61   29   99 1    
    62   30   31 2    
    63   30   32 1    
    64   32   33 1    
    65   32   34 1    
    66   32  100 1    
    67   33  101 1    
    68   33  102 1    
    69   33  103 1    
    70   34   35 am   BACKBONE|DICT|INTERRES
    71   34  104 1    
    72   35   36 2    
    73   37   38 2    
    74   37   39 am   BACKBONE|DICT|INTERRES
    75   39   40 1    
    76   39  105 1    
    77   40   41 1    
    78   40   42 1    
    79   40  106 1    
    80   41  107 1    
    81   41  108 1    
    82   41  109 1    
    83   42   43 2    
    84   42   44 am   BACKBONE|DICT|INTERRES
    85   44   45 1    
    86   44  110 1    
    87   45   46 1    
    88   45   47 1    
    89   45  111 1    
    90   46  112 1    
    91   46  113 1    
    92   46  114 1    
    93   47   48 2    
    94   47   49 am   BACKBONE|DICT|INTERRES
    95   49   50 1    
    96   49  115 1    
    97   50   51 1    
    98   50   52 1    
    99   50  116 1    
   100   51  117 1    
   101   51  118 1    
   102   51  119 1    
   103   52   53 2    
   104   52   54 am   BACKBONE|DICT|INTERRES
   105   54   55 1    
   106   54  120 1    
   107   55   56 1    
   108   55   57 1    
   109   55  121 1    
   110   56  122 1    
   111   56  123 1    
   112   56  124 1    
   113   57   58 2    
   114   57   59 am   BACKBONE|DICT|INTERRES
   115   59   60 1    
   116   59  125 1    
   117   60   61 1    
   118   60   62 1    
   119   60  126 1    
   120   61  127 1    
   121   61  128 1    
   122   61  129 1    
   123   62   63 2    
   124   62   64 am   BACKBONE|DICT|INTERRES
   125   64   65 1    
   126   64  130 1    
   127   65   66 1    
   128   65   69 1    
   129   65  131 1    
   130   66   67 am   BACKBONE|DICT|INTERRES
   131   66   68 2    
   132   67  132 1    
   133   67  133 1    
   134   69   70 1    
   135   69  134 1    
   136   69  135 1    
   137   70   71 1    
   138   71  136 1    
   139   71  137 1    
@<TRIPOS>SUBSTRUCTURE
     1 UNK         1 GROUP             0       ****    0 ROOT    
