@<TRIPOS>MOLECULE
3R136
137   139    1
SMALL
USER_CHARGES


@<TRIPOS>ATOM
      1 CA         29.2145   21.6768    4.5172 C.3       0 UNK        -0.1979 
      2 C          28.4893   21.6697    3.1810 C.2       0 UNK         0.4864 
      3 O          27.3224   21.2802    3.1180 O.2       0 UNK        -0.5359 
      4 N          29.1789   22.0846    2.1101 N.am      1 UNK        -0.4318 
      5 CA         28.6478   22.1588    0.7467 C.3       1 UNK         0.0824 
      6 C6         29.7617   22.3086   -0.3250 C.3       12 UNK        -0.0944 
      7 S7         31.0836   21.0570   -0.1511 S.3       12 UNK        -0.2672 
      8 C8         32.6122   22.0402   -0.3575 C.3       12 UNK         0.0333 
      9 C9         32.6971   23.2578    0.5596 C.ar      12 UNK        -0.0807 
     10 C10        33.0006   24.5127    0.0205 C.ar      12 UNK        -0.0894 
     11 C11        33.0641   25.6430    0.8400 C.ar      12 UNK        -0.0804 
     12 C12        32.8086   25.5131    2.2063 C.ar      12 UNK        -0.0824 
     13 C13        32.4926   24.2699    2.7600 C.ar      12 UNK        -0.0762 
     14 C14        32.4675   23.1406    1.9349 C.ar      12 UNK        -0.0782 
     15 C15        32.1684   24.1372    4.2445 C.3       12 UNK         0.0230 
     16 S16        31.0138   25.4052    4.8856 S.3       12 UNK        -0.2608 
     17 C17        29.6996   25.5212    3.6154 C.3       12 UNK        -0.0989 
     18 CA         29.6710   26.9247    2.9520 C.3       5 UNK         0.0716 
     19 N          29.1625   26.8880    1.5776 N.am      5 UNK        -0.4135 
     20 C          29.2630   27.9081    0.7150 C.2       4 UNK         0.5031 
     21 O          29.7693   28.9943    0.9955 O.2       4 UNK        -0.5229 
     22 CA         28.6817   27.7020   -0.6925 C.3       4 UNK         0.0329 
     23 CB         29.6290   26.8317   -1.5352 C.3       4 UNK        -0.2001 
     24 N          27.3249   27.1438   -0.7497 N.am      4 UNK        -0.4303 
     25 C          26.2542   27.5273   -0.0365 C.2       3 UNK         0.5044 
     26 O          26.2972   28.3353    0.8899 O.2       3 UNK        -0.5152 
     27 CA         24.8877   26.9321   -0.4302 C.3       3 UNK         0.0319 
     28 CB         24.0119   28.0251   -1.0642 C.3       3 UNK        -0.2001 
     29 N          24.9954   25.8139   -1.3757 N.am      3 UNK        -0.4354 
     30 C          25.2472   24.5243   -1.1061 C.2       2 UNK         0.4964 
     31 O          25.3977   23.7030   -2.0110 O.2       2 UNK        -0.5047 
     32 CA         25.3068   24.0290    0.3536 C.3       2 UNK         0.0288 
     33 CB         23.9573   23.4224    0.7708 C.3       2 UNK        -0.2113 
     34 N          26.3547   23.0204    0.5022 N.am      2 UNK        -0.4145 
     35 C          27.6478   23.3248    0.6584 C.2       1 UNK         0.5006 
     36 O          28.0662   24.4803    0.7602 O.2       1 UNK        -0.5103 
     37 C          28.9437   27.9647    3.8287 C.2       5 UNK         0.5055 
     38 O          29.5879   28.6041    4.6580 O.2       5 UNK        -0.5220 
     39 N          27.6328   28.1451    3.6145 N.am      6 UNK        -0.4450 
     40 CA         26.8362   29.1669    4.2935 C.3       6 UNK         0.0367 
     41 CB         25.3447   28.7990    4.2251 C.3       6 UNK        -0.1929 
     42 C          27.0902   30.5585    3.6957 C.2       6 UNK         0.5070 
     43 O          27.3068   31.5108    4.4449 O.2       6 UNK        -0.5237 
     44 N          27.0788   30.6446    2.3581 N.am      7 UNK        -0.4739 
     45 CA         27.2553   31.8767    1.5854 C.3       7 UNK         0.0276 
     46 CB         27.0240   31.5783    0.0953 C.3       7 UNK        -0.1927 
     47 C          28.6214   32.5488    1.7982 C.2       7 UNK         0.5013 
     48 O          28.6769   33.7717    1.9311 O.2       7 UNK        -0.5193 
     49 N          29.6881   31.7409    1.8485 N.am      8 UNK        -0.4253 
     50 CA         31.0647   32.1872    2.0734 C.3       8 UNK         0.0242 
     51 CB         31.9908   31.4220    1.1138 C.3       8 UNK        -0.2000 
     52 C          31.5101   32.0362    3.5410 C.2       8 UNK         0.4948 
     53 O          32.7129   32.1081    3.8059 O.2       8 UNK        -0.5275 
     54 N          30.5609   31.8111    4.4642 N.am      9 UNK        -0.4246 
     55 CA         30.6819   31.6959    5.9287 C.3       9 UNK         0.0261 
     56 CB         31.1705   33.0202    6.5469 C.3       9 UNK        -0.1959 
     57 C          31.5193   30.5090    6.4474 C.2       9 UNK         0.5033 
     58 O          31.0903   29.8331    7.3840 O.2       9 UNK        -0.5390 
     59 N          32.6913   30.2888    5.8479 N.am      10 UNK        -0.4215 
     60 CA         33.6260   29.1949    6.1103 C.3       10 UNK         0.0240 
     61 CB         34.3796   29.4335    7.4366 C.3       10 UNK        -0.1982 
     62 C          34.5729   29.0186    4.9093 C.2       10 UNK         0.4970 
     63 O          35.7589   28.7447    5.0995 O.2       10 UNK        -0.4916 
     64 N          34.0400   29.2069    3.6932 N.am      11 UNK        -0.4279 
     65 CA         34.7896   29.2375    2.4263 C.3       11 UNK         0.1003 
     66 C          35.7739   30.4411    2.3003 C.2       11 UNK         0.5709 
     67 N          35.4424   31.6016    2.8555 N.am      11 UNK        -0.7358 
     68 O          36.8334   30.3408    1.6859 O.2       11 UNK        -0.4999 
     69 C69        35.3996   27.8506    2.0541 C.3       12 UNK        -0.0954 
     70 S70        35.1444   27.4203    0.2978 S.3       12 UNK        -0.2268 
     71 C71        33.3674   27.0094    0.2440 C.3       12 UNK         0.0203 
     72 H72        30.2370   21.3171    4.4082 H         1 UNK         0.0888 
     73 H73        29.2363   22.6835    4.9333 H         1 UNK         0.0888 
     74 H74        28.7087   21.0262    5.2305 H         1 UNK         0.0888 
     75 H75        30.1296   22.4040    2.2134 H         1 UNK         0.3017 
     76 H76        28.1185   21.2251    0.5439 H         1 UNK         0.0873 
     77 H77        30.1984   23.3077   -0.2897 H         1 UNK         0.0745 
     78 H78        29.3345   22.2094   -1.3244 H         1 UNK         0.0745 
     79 H79        33.4719   21.3966   -0.1671 H         1 UNK         0.0705 
     80 H80        32.6816   22.3427   -1.4036 H         1 UNK         0.0705 
     81 H81        33.1839   24.6138   -1.0406 H         1 UNK         0.1334 
     82 H82        32.8378   26.3860    2.8424 H         1 UNK         0.1417 
     83 H83        32.2527   22.1675    2.3553 H         1 UNK         0.1562 
     84 H84        33.0987   24.1986    4.8104 H         1 UNK         0.0748 
     85 H85        31.7502   23.1544    4.4586 H         1 UNK         0.0748 
     86 H86        28.7367   25.2713    4.0653 H         1 UNK         0.0940 
     87 H87        29.8711   24.7546    2.8608 H         1 UNK         0.0940 
     88 H88        30.6996   27.2780    2.8648 H         1 UNK         0.0703 
     89 H89        28.7292   26.0193    1.2616 H         1 UNK         0.3081 
     90 H90        28.6297   28.6865   -1.1607 H         1 UNK         0.0719 
     91 H91        30.6398   27.2415   -1.5348 H         1 UNK         0.0809 
     92 H92        29.6909   25.8123   -1.1516 H         1 UNK         0.0809 
     93 H93        29.3046   26.7803   -2.5746 H         1 UNK         0.0809 
     94 H94        27.1707   26.4483   -1.4642 H         1 UNK         0.2990 
     95 H95        24.3817   26.6087    0.4804 H         1 UNK         0.0690 
     96 H96        23.0189   27.6467   -1.3078 H         1 UNK         0.0788 
     97 H97        24.4548   28.4210   -1.9791 H         1 UNK         0.0788 
     98 H98        23.8764   28.8643   -0.3798 H         1 UNK         0.0788 
     99 H99        24.9178   26.0716   -2.3493 H         1 UNK         0.2993 
    100 H100       25.5396   24.8450    1.0375 H         1 UNK         0.0949 
    101 H101       23.1603   24.1646    0.7068 H         1 UNK         0.0767 
    102 H102       23.6748   22.5843    0.1321 H         1 UNK         0.0767 
    103 H103       23.9849   23.0650    1.8006 H         1 UNK         0.0767 
    104 H104       26.0756   22.0534    0.4209 H         1 UNK         0.3013 
    105 H105       27.1910   27.6573    2.8461 H         1 UNK         0.3121 
    106 H106       27.1260   29.1959    5.3465 H         1 UNK         0.0774 
    107 H107       24.7389   29.5395    4.7489 H         1 UNK         0.0815 
    108 H108       24.9807   28.7500    3.1984 H         1 UNK         0.0815 
    109 H109       25.1532   27.8341    4.6946 H         1 UNK         0.0815 
    110 H110       26.8771   29.8003    1.8248 H         1 UNK         0.2987 
    111 H111       26.4894   32.5816    1.9156 H         1 UNK         0.0949 
    112 H112       27.7453   30.8549   -0.2863 H         1 UNK         0.0806 
    113 H113       26.0255   31.1765   -0.0785 H         1 UNK         0.0806 
    114 H114       27.1190   32.4841   -0.5050 H         1 UNK         0.0806 
    115 H115       29.5592   30.7429    1.6887 H         1 UNK         0.3010 
    116 H116       31.1527   33.2489    1.8339 H         1 UNK         0.0829 
    117 H117       31.6839   31.5597    0.0770 H         1 UNK         0.0813 
    118 H118       33.0206   31.7717    1.1909 H         1 UNK         0.0813 
    119 H119       31.9810   30.3529    1.3207 H         1 UNK         0.0813 
    120 H120       29.6111   31.7213    4.1243 H         1 UNK         0.3038 
    121 H121       29.6637   31.5268    6.2834 H         1 UNK         0.0769 
    122 H122       32.1814   33.2730    6.2255 H         1 UNK         0.0811 
    123 H123       31.1825   32.9602    7.6361 H         1 UNK         0.0811 
    124 H124       30.5158   33.8484    6.2757 H         1 UNK         0.0811 
    125 H125       32.9453   30.9429    5.1069 H         1 UNK         0.3204 
    126 H126       33.0538   28.2685    6.1959 H         1 UNK         0.0748 
    127 H127       35.0590   28.6092    7.6572 H         1 UNK         0.0771 
    128 H128       34.9726   30.3480    7.3996 H         1 UNK         0.0771 
    129 H129       33.6936   29.5135    8.2797 H         1 UNK         0.0771 
    130 H130       33.0571   29.4238    3.6274 H         1 UNK         0.2980 
    131 H131       34.0303   29.4673    1.6837 H         1 UNK         0.0545 
    132 H132       36.0757   32.3805    2.7740 H         1 UNK         0.3459 
    133 H133       34.5401   31.7324    3.3011 H         1 UNK         0.3459 
    134 H134       34.9782   27.0544    2.6643 H         1 UNK         0.0616 
    135 H135       36.4687   27.8168    2.2700 H         1 UNK         0.0616 
    136 H136       33.0449   27.0335   -0.7978 H         1 UNK         0.0634 
    137 H137       32.7822   27.7768    0.7520 H         1 UNK         0.0634 
@<TRIPOS>BOND
     1    1    2 1    
     2    1   72 1    
     3    1   73 1    
     4    1   74 1    
     5    2    3 2    
     6    2    4 am   BACKBONE|DICT|INTERRES
     7    4    5 1    
     8    4   75 1    
     9    5    6 1    
    10    5   35 1    
    11    5   76 1    
    12    6    7 1    
    13    6   77 1    
    14    6   78 1    
    15    7    8 1    
    16    8    9 1    
    17    8   79 1    
    18    8   80 1    
    19    9   10 ar   
    20    9   14 ar   
    21   10   11 ar   
    22   10   81 1    
    23   11   12 ar   
    24   11   71 1    
    25   12   13 ar   
    26   12   82 1    
    27   13   14 ar   
    28   13   15 1    
    29   14   83 1    
    30   15   16 1    
    31   15   84 1    
    32   15   85 1    
    33   16   17 1    
    34   17   18 1    
    35   17   86 1    
    36   17   87 1    
    37   18   19 1    
    38   18   37 1    
    39   18   88 1    
    40   19   20 am   BACKBONE|DICT|INTERRES
    41   19   89 1    
    42   20   21 2    
    43   20   22 1    
    44   22   23 1    
    45   22   24 1    
    46   22   90 1    
    47   23   91 1    
    48   23   92 1    
    49   23   93 1    
    50   24   25 am   BACKBONE|DICT|INTERRES
    51   24   94 1    
    52   25   26 2    
    53   25   27 1    
    54   27   28 1    
    55   27   29 1    
    56   27   95 1    
    57   28   96 1    
    58   28   97 1    
    59   28   98 1    
    60   29   30 am   BACKBONE|DICT|INTERRES
    61   29   99 1    
    62   30   31 2    
    63   30   32 1    
    64   32   33 1    
    65   32   34 1    
    66   32  100 1    
    67   33  101 1    
    68   33  102 1    
    69   33  103 1    
    70   34   35 am   BACKBONE|DICT|INTERRES
    71   34  104 1    
    72   35   36 2    
    73   37   38 2    
    74   37   39 am   BACKBONE|DICT|INTERRES
    75   39   40 1    
    76   39  105 1    
    77   40   41 1    
    78   40   42 1    
    79   40  106 1    
    80   41  107 1    
    81   41  108 1    
    82   41  109 1    
    83   42   43 2    
    84   42   44 am   BACKBONE|DICT|INTERRES
    85   44   45 1    
    86   44  110 1    
    87   45   46 1    
    88   45   47 1    
    89   45  111 1    
    90   46  112 1    
    91   46  113 1    
    92   46  114 1    
    93   47   48 2    
    94   47   49 am   BACKBONE|DICT|INTERRES
    95   49   50 1    
    96   49  115 1    
    97   50   51 1    
    98   50   52 1    
    99   50  116 1    
   100   51  117 1    
   101   51  118 1    
   102   51  119 1    
   103   52   53 2    
   104   52   54 am   BACKBONE|DICT|INTERRES
   105   54   55 1    
   106   54  120 1    
   107   55   56 1    
   108   55   57 1    
   109   55  121 1    
   110   56  122 1    
   111   56  123 1    
   112   56  124 1    
   113   57   58 2    
   114   57   59 am   BACKBONE|DICT|INTERRES
   115   59   60 1    
   116   59  125 1    
   117   60   61 1    
   118   60   62 1    
   119   60  126 1    
   120   61  127 1    
   121   61  128 1    
   122   61  129 1    
   123   62   63 2    
   124   62   64 am   BACKBONE|DICT|INTERRES
   125   64   65 1    
   126   64  130 1    
   127   65   66 1    
   128   65   69 1    
   129   65  131 1    
   130   66   67 am   BACKBONE|DICT|INTERRES
   131   66   68 2    
   132   67  132 1    
   133   67  133 1    
   134   69   70 1    
   135   69  134 1    
   136   69  135 1    
   137   70   71 1    
   138   71  136 1    
   139   71  137 1    
@<TRIPOS>SUBSTRUCTURE
     1 UNK         1 GROUP             0       ****    0 ROOT    
