@<TRIPOS>MOLECULE
3R136
137   139    1
SMALL
USER_CHARGES


@<TRIPOS>ATOM
      1 CA         29.3846   22.5590   -1.6157 C.3       0 UNK        -0.1979 
      2 C          29.0368   22.3428   -0.1513 C.2       0 UNK         0.4864 
      3 O          28.7451   21.2149    0.2502 O.2       0 UNK        -0.5359 
      4 N          29.0369   23.4255    0.6365 N.am      1 UNK        -0.4318 
      5 CA         28.7408   23.5090    2.0730 C.3       1 UNK         0.0824 
      6 C6         29.6288   22.6186    2.9878 C.3       12 UNK        -0.0944 
      7 S7         31.4203   22.8490    2.7285 S.3       12 UNK        -0.2672 
      8 C8         31.8565   23.9894    4.0769 C.3       12 UNK         0.0333 
      9 C9         31.4674   25.4196    3.7395 C.ar      12 UNK        -0.0807 
     10 C10        32.2668   26.1674    2.8711 C.ar      12 UNK        -0.0894 
     11 C11        31.9363   27.4887    2.5609 C.ar      12 UNK        -0.0804 
     12 C12        30.7836   28.0523    3.1145 C.ar      12 UNK        -0.0824 
     13 C13        29.9584   27.3071    3.9622 C.ar      12 UNK        -0.0762 
     14 C14        30.3135   25.9930    4.2825 C.ar      12 UNK        -0.0782 
     15 C15        28.6834   27.9155    4.5323 C.3       12 UNK         0.0230 
     16 S16        27.2776   27.7468    3.3864 S.3       12 UNK        -0.2608 
     17 C17        27.5624   29.1170    2.2139 C.3       12 UNK        -0.0989 
     18 CA         27.9815   28.6151    0.8079 C.3       5 UNK         0.0716 
     19 N          26.8869   27.9105    0.1394 N.am      5 UNK        -0.4135 
     20 C          26.9471   26.6834   -0.3827 C.2       4 UNK         0.5031 
     21 O          27.9137   25.9219   -0.2856 O.2       4 UNK        -0.5229 
     22 CA         25.7300   26.2589   -1.2113 C.3       4 UNK         0.0329 
     23 CB         25.8758   26.7684   -2.6602 C.3       4 UNK        -0.2001 
     24 N          25.6141   24.8033   -1.1863 N.am      4 UNK        -0.4303 
     25 C          24.5574   24.0973   -1.6086 C.2       3 UNK         0.5044 
     26 O          23.5303   24.6006   -2.0656 O.2       3 UNK        -0.5152 
     27 CA         24.6595   22.5669   -1.5036 C.3       3 UNK         0.0319 
     28 CB         25.4900   21.9979   -2.6654 C.3       3 UNK        -0.2001 
     29 N          25.2285   22.1263   -0.2289 N.am      3 UNK        -0.4354 
     30 C          24.5778   22.1648    0.9441 C.2       2 UNK         0.4964 
     31 O          23.4172   22.5541    1.0754 O.2       2 UNK        -0.5047 
     32 CA         25.3551   21.6863    2.1805 C.3       2 UNK         0.0288 
     33 CB         25.2361   20.1622    2.3424 C.3       2 UNK        -0.2113 
     34 N          26.7674   22.0587    2.1077 N.am      2 UNK        -0.4145 
     35 C          27.2427   23.2868    2.3491 C.2       1 UNK         0.5006 
     36 O          26.5477   24.2206    2.7492 O.2       1 UNK        -0.5103 
     37 C          28.3953   29.8025   -0.0836 C.2       5 UNK         0.5055 
     38 O          27.6130   30.2412   -0.9331 O.2       5 UNK        -0.5220 
     39 N          29.6098   30.3155    0.1432 N.am      6 UNK        -0.4450 
     40 CA         30.1417   31.5243   -0.4885 C.3       6 UNK         0.0367 
     41 CB         31.6604   31.3390   -0.6871 C.3       6 UNK        -0.1929 
     42 C          29.8142   32.7644    0.3684 C.2       6 UNK         0.5070 
     43 O          28.9484   32.7052    1.2451 O.2       6 UNK        -0.5237 
     44 N          30.5268   33.8723    0.1168 N.am      7 UNK        -0.4739 
     45 CA         30.5125   35.0681    0.9692 C.3       7 UNK         0.0276 
     46 CB         31.1925   36.2325    0.2311 C.3       7 UNK        -0.1927 
     47 C          31.1843   34.8230    2.3353 C.2       7 UNK         0.5013 
     48 O          30.7790   35.4280    3.3287 O.2       7 UNK        -0.5193 
     49 N          32.1792   33.9264    2.3560 N.am      8 UNK        -0.4253 
     50 CA         32.7725   33.3548    3.5628 C.3       8 UNK         0.0242 
     51 CB         34.2446   33.0124    3.2798 C.3       8 UNK        -0.2000 
     52 C          31.9974   32.0903    3.9641 C.2       8 UNK         0.4948 
     53 O          31.4167   31.4304    3.0984 O.2       8 UNK        -0.5275 
     54 N          32.0299   31.7628    5.2595 N.am      9 UNK        -0.4246 
     55 CA         31.4221   30.5627    5.8308 C.3       9 UNK         0.0261 
     56 CB         30.4181   30.9731    6.9207 C.3       9 UNK        -0.1959 
     57 C          32.5147   29.6620    6.4170 C.2       9 UNK         0.5033 
     58 O          33.5260   30.1777    6.9006 O.2       9 UNK        -0.5390 
     59 N          32.2651   28.3432    6.3912 N.am      10 UNK        -0.4215 
     60 CA         33.1256   27.2644    6.8981 C.3       10 UNK         0.0240 
     61 CB         33.1713   27.2878    8.4410 C.3       10 UNK        -0.1982 
     62 C          34.5249   27.2743    6.2519 C.2       10 UNK         0.4970 
     63 O          35.5367   27.2743    6.9555 O.2       10 UNK        -0.4916 
     64 N          34.5423   27.3130    4.9141 N.am      11 UNK        -0.4279 
     65 CA         35.7469   27.4609    4.0814 C.3       11 UNK         0.1003 
     66 C          36.7517   26.2720    4.1319 C.2       11 UNK         0.5709 
     67 N          36.3760   25.1016    4.6341 N.am      11 UNK        -0.7358 
     68 O          37.8951   26.4176    3.7060 O.2       11 UNK        -0.4999 
     69 C69        35.3963   27.8064    2.6087 C.3       12 UNK        -0.0954 
     70 S70        34.1710   29.1501    2.4308 S.3       12 UNK        -0.2268 
     71 C71        32.7957   28.2953    1.5966 C.3       12 UNK         0.0203 
     72 H72        28.8393   21.8580   -2.2466 H         1 UNK         0.0888 
     73 H73        29.1393   23.5705   -1.9405 H         1 UNK         0.0888 
     74 H74        30.4504   22.3961   -1.7728 H         1 UNK         0.0888 
     75 H75        29.1681   24.3346    0.2042 H         1 UNK         0.3017 
     76 H76        28.9425   24.5484    2.3349 H         1 UNK         0.0873 
     77 H77        29.3941   22.8051    4.0372 H         1 UNK         0.0745 
     78 H78        29.4172   21.5609    2.8240 H         1 UNK         0.0745 
     79 H79        31.3946   23.6642    5.0103 H         1 UNK         0.0705 
     80 H80        32.9341   23.9392    4.2403 H         1 UNK         0.0705 
     81 H81        33.1419   25.7101    2.4311 H         1 UNK         0.1334 
     82 H82        30.5216   29.0713    2.8738 H         1 UNK         0.1417 
     83 H83        29.6818   25.4105    4.9398 H         1 UNK         0.1562 
     84 H84        28.8292   28.9662    4.7838 H         1 UNK         0.0748 
     85 H85        28.4236   27.4192    5.4687 H         1 UNK         0.0748 
     86 H86        28.3074   29.7971    2.6307 H         1 UNK         0.0940 
     87 H87        26.6434   29.7030    2.1500 H         1 UNK         0.0940 
     88 H88        28.8473   27.9565    0.9071 H         1 UNK         0.0703 
     89 H89        26.0843   28.4860   -0.0726 H         1 UNK         0.3081 
     90 H90        24.8322   26.6860   -0.7591 H         1 UNK         0.0719 
     91 H91        26.7356   26.3176   -3.1577 H         1 UNK         0.0809 
     92 H92        24.9913   26.5488   -3.2578 H         1 UNK         0.0809 
     93 H93        26.0156   27.8501   -2.6854 H         1 UNK         0.0809 
     94 H94        26.4160   24.3296   -0.7930 H         1 UNK         0.2990 
     95 H95        23.6492   22.1591   -1.5833 H         1 UNK         0.0690 
     96 H96        25.5372   20.9095   -2.6258 H         1 UNK         0.0788 
     97 H97        26.5104   22.3805   -2.6617 H         1 UNK         0.0788 
     98 H98        25.0474   22.2669   -3.6256 H         1 UNK         0.0788 
     99 H99        26.1712   21.7650   -0.2451 H         1 UNK         0.2993 
    100 H100       24.9108   22.1605    3.0588 H         1 UNK         0.0949 
    101 H101       25.6771   19.6286    1.4993 H         1 UNK         0.0767 
    102 H102       25.7327   19.8214    3.2512 H         1 UNK         0.0767 
    103 H103       24.1907   19.8580    2.4115 H         1 UNK         0.0767 
    104 H104       27.4125   21.3837    1.7064 H         1 UNK         0.3013 
    105 H105       30.1529   29.9581    0.9142 H         1 UNK         0.3121 
    106 H106       29.6800   31.6647   -1.4682 H         1 UNK         0.0774 
    107 H107       32.0855   32.1339   -1.3003 H         1 UNK         0.0815 
    108 H108       31.8803   30.4011   -1.1978 H         1 UNK         0.0815 
    109 H109       32.1956   31.3330    0.2637 H         1 UNK         0.0815 
    110 H110       31.1911   33.8630   -0.6441 H         1 UNK         0.2987 
    111 H111       29.4722   35.3425    1.1589 H         1 UNK         0.0949 
    112 H112       30.6838   36.4600   -0.7058 H         1 UNK         0.0806 
    113 H113       31.1740   37.1400    0.8364 H         1 UNK         0.0806 
    114 H114       32.2368   36.0147    0.0036 H         1 UNK         0.0806 
    115 H115       32.3873   33.4446    1.4949 H         1 UNK         0.3010 
    116 H116       32.7255   34.0792    4.3790 H         1 UNK         0.0829 
    117 H117       34.7239   32.5816    4.1599 H         1 UNK         0.0813 
    118 H118       34.3421   32.2875    2.4704 H         1 UNK         0.0813 
    119 H119       34.8123   33.9012    3.0038 H         1 UNK         0.0813 
    120 H120       32.6089   32.2985    5.8919 H         1 UNK         0.3038 
    121 H121       30.8888   30.0069    5.0622 H         1 UNK         0.0769 
    122 H122       30.9016   31.5219    7.7300 H         1 UNK         0.0811 
    123 H123       29.9368   30.0987    7.3609 H         1 UNK         0.0811 
    124 H124       29.6293   31.6051    6.5123 H         1 UNK         0.0811 
    125 H125       31.4066   28.0350    5.9569 H         1 UNK         0.3204 
    126 H126       32.6572   26.3256    6.5982 H         1 UNK         0.0748 
    127 H127       33.7313   26.4359    8.8286 H         1 UNK         0.0771 
    128 H128       33.6509   28.1915    8.8191 H         1 UNK         0.0771 
    129 H129       32.1696   27.2372    8.8678 H         1 UNK         0.0771 
    130 H130       33.6651   27.3330    4.4139 H         1 UNK         0.2980 
    131 H131       36.2870   28.3178    4.4885 H         1 UNK         0.0545 
    132 H132       35.4468   24.9767    4.9994 H         1 UNK         0.3459 
    133 H133       37.0379   24.3423    4.6629 H         1 UNK         0.3459 
    134 H134       35.0444   26.9195    2.0812 H         1 UNK         0.0616 
    135 H135       36.2969   28.1217    2.0788 H         1 UNK         0.0616 
    136 H136       32.1807   29.0455    1.1013 H         1 UNK         0.0634 
    137 H137       33.1811   27.6554    0.8015 H         1 UNK         0.0634 
@<TRIPOS>BOND
     1    1    2 1    
     2    1   72 1    
     3    1   73 1    
     4    1   74 1    
     5    2    3 2    
     6    2    4 am   BACKBONE|DICT|INTERRES
     7    4    5 1    
     8    4   75 1    
     9    5    6 1    
    10    5   35 1    
    11    5   76 1    
    12    6    7 1    
    13    6   77 1    
    14    6   78 1    
    15    7    8 1    
    16    8    9 1    
    17    8   79 1    
    18    8   80 1    
    19    9   10 ar   
    20    9   14 ar   
    21   10   11 ar   
    22   10   81 1    
    23   11   12 ar   
    24   11   71 1    
    25   12   13 ar   
    26   12   82 1    
    27   13   14 ar   
    28   13   15 1    
    29   14   83 1    
    30   15   16 1    
    31   15   84 1    
    32   15   85 1    
    33   16   17 1    
    34   17   18 1    
    35   17   86 1    
    36   17   87 1    
    37   18   19 1    
    38   18   37 1    
    39   18   88 1    
    40   19   20 am   BACKBONE|DICT|INTERRES
    41   19   89 1    
    42   20   21 2    
    43   20   22 1    
    44   22   23 1    
    45   22   24 1    
    46   22   90 1    
    47   23   91 1    
    48   23   92 1    
    49   23   93 1    
    50   24   25 am   BACKBONE|DICT|INTERRES
    51   24   94 1    
    52   25   26 2    
    53   25   27 1    
    54   27   28 1    
    55   27   29 1    
    56   27   95 1    
    57   28   96 1    
    58   28   97 1    
    59   28   98 1    
    60   29   30 am   BACKBONE|DICT|INTERRES
    61   29   99 1    
    62   30   31 2    
    63   30   32 1    
    64   32   33 1    
    65   32   34 1    
    66   32  100 1    
    67   33  101 1    
    68   33  102 1    
    69   33  103 1    
    70   34   35 am   BACKBONE|DICT|INTERRES
    71   34  104 1    
    72   35   36 2    
    73   37   38 2    
    74   37   39 am   BACKBONE|DICT|INTERRES
    75   39   40 1    
    76   39  105 1    
    77   40   41 1    
    78   40   42 1    
    79   40  106 1    
    80   41  107 1    
    81   41  108 1    
    82   41  109 1    
    83   42   43 2    
    84   42   44 am   BACKBONE|DICT|INTERRES
    85   44   45 1    
    86   44  110 1    
    87   45   46 1    
    88   45   47 1    
    89   45  111 1    
    90   46  112 1    
    91   46  113 1    
    92   46  114 1    
    93   47   48 2    
    94   47   49 am   BACKBONE|DICT|INTERRES
    95   49   50 1    
    96   49  115 1    
    97   50   51 1    
    98   50   52 1    
    99   50  116 1    
   100   51  117 1    
   101   51  118 1    
   102   51  119 1    
   103   52   53 2    
   104   52   54 am   BACKBONE|DICT|INTERRES
   105   54   55 1    
   106   54  120 1    
   107   55   56 1    
   108   55   57 1    
   109   55  121 1    
   110   56  122 1    
   111   56  123 1    
   112   56  124 1    
   113   57   58 2    
   114   57   59 am   BACKBONE|DICT|INTERRES
   115   59   60 1    
   116   59  125 1    
   117   60   61 1    
   118   60   62 1    
   119   60  126 1    
   120   61  127 1    
   121   61  128 1    
   122   61  129 1    
   123   62   63 2    
   124   62   64 am   BACKBONE|DICT|INTERRES
   125   64   65 1    
   126   64  130 1    
   127   65   66 1    
   128   65   69 1    
   129   65  131 1    
   130   66   67 am   BACKBONE|DICT|INTERRES
   131   66   68 2    
   132   67  132 1    
   133   67  133 1    
   134   69   70 1    
   135   69  134 1    
   136   69  135 1    
   137   70   71 1    
   138   71  136 1    
   139   71  137 1    
@<TRIPOS>SUBSTRUCTURE
     1 UNK         1 GROUP             0       ****    0 ROOT    
