@<TRIPOS>MOLECULE
3R136
137   139    1
SMALL
USER_CHARGES


@<TRIPOS>ATOM
      1 CA         26.4111   25.9836    5.0989 C.3       0 UNK        -0.1979 
      2 C          26.9596   25.4538    3.7830 C.2       0 UNK         0.4864 
      3 O          27.5517   26.2130    3.0140 O.2       0 UNK        -0.5359 
      4 N          26.7827   24.1476    3.5423 N.am      1 UNK        -0.4318 
      5 CA         27.1199   23.4178    2.3136 C.3       1 UNK         0.0824 
      6 C6         28.5775   23.6615    1.8286 C.3       12 UNK        -0.0944 
      7 S7         29.2666   22.2215    0.9493 S.3       12 UNK        -0.2672 
      8 C8         30.6587   21.7543    2.0389 C.3       12 UNK         0.0333 
      9 C9         31.8044   22.7668    2.0610 C.ar      12 UNK        -0.0807 
     10 C10        32.5160   22.9866    3.2462 C.ar      12 UNK        -0.0894 
     11 C11        33.5988   23.8739    3.2798 C.ar      12 UNK        -0.0804 
     12 C12        33.9485   24.5682    2.1166 C.ar      12 UNK        -0.0824 
     13 C13        33.2335   24.3770    0.9323 C.ar      12 UNK        -0.0762 
     14 C14        32.1854   23.4542    0.9038 C.ar      12 UNK        -0.0782 
     15 C15        33.5891   25.1673   -0.3196 C.3       12 UNK         0.0230 
     16 S16        32.9707   26.8816   -0.2503 S.3       12 UNK        -0.2608 
     17 C17        31.1636   26.6379   -0.1381 C.3       12 UNK        -0.0989 
     18 CA         30.3792   27.8213    0.4823 C.3       5 UNK         0.0716 
     19 N          28.9420   27.5810    0.3316 N.am      5 UNK        -0.4135 
     20 C          27.9394   28.4087    0.6511 C.2       4 UNK         0.5031 
     21 O          28.1053   29.4853    1.2253 O.2       4 UNK        -0.5229 
     22 CA         26.5111   27.9402    0.2959 C.3       4 UNK         0.0329 
     23 CB         25.6031   29.1109   -0.1373 C.3       4 UNK        -0.2001 
     24 N          26.4728   26.8349   -0.6785 N.am      4 UNK        -0.4303 
     25 C          26.8710   26.8638   -1.9634 C.2       3 UNK         0.5044 
     26 O          27.2559   27.8860   -2.5312 O.2       3 UNK        -0.5152 
     27 CA         26.9168   25.5326   -2.7428 C.3       3 UNK         0.0319 
     28 CB         28.3385   25.2605   -3.2678 C.3       3 UNK        -0.2001 
     29 N          26.4958   24.3768   -1.9490 N.am      3 UNK        -0.4354 
     30 C          25.2340   23.9467   -1.8207 C.2       2 UNK         0.4964 
     31 O          24.2725   24.4509   -2.4010 O.2       2 UNK        -0.5047 
     32 CA         25.0057   22.7672   -0.8565 C.3       2 UNK         0.0288 
     33 CB         25.0568   21.4326   -1.6179 C.3       2 UNK        -0.2113 
     34 N          25.9527   22.7211    0.2670 N.am      2 UNK        -0.4145 
     35 C          26.0784   23.6753    1.2009 C.2       1 UNK         0.5006 
     36 O          25.4219   24.7195    1.1814 O.2       1 UNK        -0.5103 
     37 C          30.8067   28.1161    1.9383 C.2       5 UNK         0.5055 
     38 O          31.7120   28.9275    2.1418 O.2       5 UNK        -0.5220 
     39 N          30.1421   27.4820    2.9146 N.am      6 UNK        -0.4450 
     40 CA         30.3962   27.6620    4.3447 C.3       6 UNK         0.0367 
     41 CB         30.4634   26.2802    5.0186 C.3       6 UNK        -0.1929 
     42 C          29.3531   28.5797    5.0134 C.2       6 UNK         0.5070 
     43 O          29.3864   28.7246    6.2362 O.2       6 UNK        -0.5237 
     44 N          28.4430   29.1715    4.2255 N.am      7 UNK        -0.4739 
     45 CA         27.4372   30.1340    4.6791 C.3       7 UNK         0.0276 
     46 CB         26.0516   29.7223    4.1540 C.3       7 UNK        -0.1927 
     47 C          27.7889   31.5522    4.2108 C.2       7 UNK         0.5013 
     48 O          27.7350   32.4846    5.0132 O.2       7 UNK        -0.5193 
     49 N          28.1435   31.6943    2.9256 N.am      8 UNK        -0.4253 
     50 CA         28.5096   32.9643    2.2919 C.3       8 UNK         0.0242 
     51 CB         28.3938   32.8081    0.7665 C.3       8 UNK        -0.2000 
     52 C          29.9166   33.4581    2.6736 C.2       8 UNK         0.4948 
     53 O          30.1994   34.6470    2.5180 O.2       8 UNK        -0.5275 
     54 N          30.7691   32.5498    3.1557 N.am      9 UNK        -0.4246 
     55 CA         32.1312   32.7928    3.6123 C.3       9 UNK         0.0261 
     56 CB         33.0919   32.7530    2.4090 C.3       9 UNK        -0.1959 
     57 C          32.4795   31.7102    4.6388 C.2       9 UNK         0.5033 
     58 O          31.7474   30.7260    4.7626 O.2       9 UNK        -0.5390 
     59 N          33.6040   31.8787    5.3423 N.am      10 UNK        -0.4215 
     60 CA         34.1490   30.8877    6.2740 C.3       10 UNK         0.0240 
     61 CB         35.0705   31.6017    7.2816 C.3       10 UNK        -0.1982 
     62 C          34.8650   29.7589    5.5064 C.2       10 UNK         0.4970 
     63 O          36.0938   29.6781    5.5502 O.2       10 UNK        -0.4916 
     64 N          34.0789   28.9443    4.7882 N.am      11 UNK        -0.4279 
     65 CA         34.5229   27.9047    3.8445 C.3       11 UNK         0.1003 
     66 C          35.2822   28.5333    2.6439 C.2       11 UNK         0.5709 
     67 N          34.5817   29.2908    1.8113 N.am      11 UNK        -0.7358 
     68 O          36.4846   28.3507    2.4654 O.2       11 UNK        -0.4999 
     69 C69        35.2802   26.7317    4.5327 C.3       12 UNK        -0.0954 
     70 S70        34.1354   25.6162    5.4122 S.3       12 UNK        -0.2268 
     71 C71        34.4193   24.0304    4.5569 C.3       12 UNK         0.0203 
     72 H72        27.0653   26.7535    5.5052 H         1 UNK         0.0888 
     73 H73        25.4247   26.4180    4.9422 H         1 UNK         0.0888 
     74 H74        26.3224   25.1936    5.8442 H         1 UNK         0.0888 
     75 H75        26.2771   23.6017    4.2261 H         1 UNK         0.3017 
     76 H76        27.0242   22.3680    2.5962 H         1 UNK         0.0873 
     77 H77        29.2222   23.8804    2.6815 H         1 UNK         0.0745 
     78 H78        28.6454   24.5389    1.1834 H         1 UNK         0.0745 
     79 H79        30.2718   21.5915    3.0462 H         1 UNK         0.0705 
     80 H80        31.0551   20.7958    1.7018 H         1 UNK         0.0705 
     81 H81        32.2424   22.4441    4.1411 H         1 UNK         0.1334 
     82 H82        34.7782   25.2583    2.1201 H         1 UNK         0.1417 
     83 H83        31.6524   23.2870   -0.0220 H         1 UNK         0.1562 
     84 H84        33.1927   24.6798   -1.2118 H         1 UNK         0.0748 
     85 H85        34.6731   25.1883   -0.4407 H         1 UNK         0.0748 
     86 H86        30.9435   25.7344    0.4282 H         1 UNK         0.0940 
     87 H87        30.8091   26.4496   -1.1527 H         1 UNK         0.0940 
     88 H88        30.6045   28.7181   -0.0986 H         1 UNK         0.0703 
     89 H89        28.6833   26.7136   -0.1096 H         1 UNK         0.3081 
     90 H90        26.0942   27.5343    1.2184 H         1 UNK         0.0719 
     91 H91        24.5973   28.7653   -0.3751 H         1 UNK         0.0809 
     92 H92        25.5101   29.8506    0.6584 H         1 UNK         0.0809 
     93 H93        25.9968   29.6305   -1.0110 H         1 UNK         0.0809 
     94 H94        26.1387   25.9557   -0.2962 H         1 UNK         0.2990 
     95 H95        26.2534   25.6416   -3.6034 H         1 UNK         0.0690 
     96 H96        29.0563   25.1433   -2.4554 H         1 UNK         0.0788 
     97 H97        28.6903   26.0776   -3.8994 H         1 UNK         0.0788 
     98 H98        28.3689   24.3545   -3.8735 H         1 UNK         0.0788 
     99 H99        27.2186   23.8828   -1.4457 H         1 UNK         0.2993 
    100 H100       24.0038   22.8848   -0.4374 H         1 UNK         0.0949 
    101 H101       26.0467   21.2426   -2.0350 H         1 UNK         0.0767 
    102 H102       24.7983   20.5951   -0.9694 H         1 UNK         0.0767 
    103 H103       24.3472   21.4283   -2.4467 H         1 UNK         0.0767 
    104 H104       26.5417   21.9020    0.3301 H         1 UNK         0.3013 
    105 H105       29.3382   26.9014    2.6847 H         1 UNK         0.3121 
    106 H106       31.3668   28.1345    4.4913 H         1 UNK         0.0774 
    107 H107       29.5008   25.7732    5.0137 H         1 UNK         0.0815 
    108 H108       30.7786   26.3699    6.0587 H         1 UNK         0.0815 
    109 H109       31.1836   25.6322    4.5186 H         1 UNK         0.0815 
    110 H110       28.4886   29.0022    3.2276 H         1 UNK         0.2987 
    111 H111       27.3899   30.1514    5.7702 H         1 UNK         0.0949 
    112 H112       26.0326   29.6423    3.0674 H         1 UNK         0.0806 
    113 H113       25.7445   28.7617    4.5629 H         1 UNK         0.0806 
    114 H114       25.2924   30.4510    4.4415 H         1 UNK         0.0806 
    115 H115       28.1417   30.8745    2.3186 H         1 UNK         0.3010 
    116 H116       27.7967   33.7266    2.6134 H         1 UNK         0.0829 
    117 H117       27.3860   32.5135    0.4730 H         1 UNK         0.0813 
    118 H118       28.6193   33.7464    0.2578 H         1 UNK         0.0813 
    119 H119       29.0853   32.0548    0.3863 H         1 UNK         0.0813 
    120 H120       30.4511   31.6007    3.3154 H         1 UNK         0.3038 
    121 H121       32.1851   33.7659    4.1049 H         1 UNK         0.0769 
    122 H122       33.0478   31.7912    1.8962 H         1 UNK         0.0811 
    123 H123       34.1256   32.9129    2.7168 H         1 UNK         0.0811 
    124 H124       32.8491   33.5284    1.6823 H         1 UNK         0.0811 
    125 H125       34.1721   32.6957    5.1682 H         1 UNK         0.3204 
    126 H126       33.3304   30.4353    6.8388 H         1 UNK         0.0748 
    127 H127       35.9063   32.0992    6.7878 H         1 UNK         0.0771 
    128 H128       34.5249   32.3521    7.8540 H         1 UNK         0.0771 
    129 H129       35.4892   30.8923    7.9968 H         1 UNK         0.0771 
    130 H130       33.0936   29.1817    4.7476 H         1 UNK         0.2980 
    131 H131       33.6164   27.4815    3.4095 H         1 UNK         0.0545 
    132 H132       35.0371   29.7104    1.0177 H         1 UNK         0.3459 
    133 H133       33.5722   29.3532    1.9168 H         1 UNK         0.3459 
    134 H134       35.8526   26.1532    3.8085 H         1 UNK         0.0616 
    135 H135       36.0204   27.0977    5.2440 H         1 UNK         0.0616 
    136 H136       34.1754   23.2281    5.2547 H         1 UNK         0.0634 
    137 H137       35.4802   23.9112    4.3328 H         1 UNK         0.0634 
@<TRIPOS>BOND
     1    1    2 1    
     2    1   72 1    
     3    1   73 1    
     4    1   74 1    
     5    2    3 2    
     6    2    4 am   BACKBONE|DICT|INTERRES
     7    4    5 1    
     8    4   75 1    
     9    5    6 1    
    10    5   35 1    
    11    5   76 1    
    12    6    7 1    
    13    6   77 1    
    14    6   78 1    
    15    7    8 1    
    16    8    9 1    
    17    8   79 1    
    18    8   80 1    
    19    9   10 ar   
    20    9   14 ar   
    21   10   11 ar   
    22   10   81 1    
    23   11   12 ar   
    24   11   71 1    
    25   12   13 ar   
    26   12   82 1    
    27   13   14 ar   
    28   13   15 1    
    29   14   83 1    
    30   15   16 1    
    31   15   84 1    
    32   15   85 1    
    33   16   17 1    
    34   17   18 1    
    35   17   86 1    
    36   17   87 1    
    37   18   19 1    
    38   18   37 1    
    39   18   88 1    
    40   19   20 am   BACKBONE|DICT|INTERRES
    41   19   89 1    
    42   20   21 2    
    43   20   22 1    
    44   22   23 1    
    45   22   24 1    
    46   22   90 1    
    47   23   91 1    
    48   23   92 1    
    49   23   93 1    
    50   24   25 am   BACKBONE|DICT|INTERRES
    51   24   94 1    
    52   25   26 2    
    53   25   27 1    
    54   27   28 1    
    55   27   29 1    
    56   27   95 1    
    57   28   96 1    
    58   28   97 1    
    59   28   98 1    
    60   29   30 am   BACKBONE|DICT|INTERRES
    61   29   99 1    
    62   30   31 2    
    63   30   32 1    
    64   32   33 1    
    65   32   34 1    
    66   32  100 1    
    67   33  101 1    
    68   33  102 1    
    69   33  103 1    
    70   34   35 am   BACKBONE|DICT|INTERRES
    71   34  104 1    
    72   35   36 2    
    73   37   38 2    
    74   37   39 am   BACKBONE|DICT|INTERRES
    75   39   40 1    
    76   39  105 1    
    77   40   41 1    
    78   40   42 1    
    79   40  106 1    
    80   41  107 1    
    81   41  108 1    
    82   41  109 1    
    83   42   43 2    
    84   42   44 am   BACKBONE|DICT|INTERRES
    85   44   45 1    
    86   44  110 1    
    87   45   46 1    
    88   45   47 1    
    89   45  111 1    
    90   46  112 1    
    91   46  113 1    
    92   46  114 1    
    93   47   48 2    
    94   47   49 am   BACKBONE|DICT|INTERRES
    95   49   50 1    
    96   49  115 1    
    97   50   51 1    
    98   50   52 1    
    99   50  116 1    
   100   51  117 1    
   101   51  118 1    
   102   51  119 1    
   103   52   53 2    
   104   52   54 am   BACKBONE|DICT|INTERRES
   105   54   55 1    
   106   54  120 1    
   107   55   56 1    
   108   55   57 1    
   109   55  121 1    
   110   56  122 1    
   111   56  123 1    
   112   56  124 1    
   113   57   58 2    
   114   57   59 am   BACKBONE|DICT|INTERRES
   115   59   60 1    
   116   59  125 1    
   117   60   61 1    
   118   60   62 1    
   119   60  126 1    
   120   61  127 1    
   121   61  128 1    
   122   61  129 1    
   123   62   63 2    
   124   62   64 am   BACKBONE|DICT|INTERRES
   125   64   65 1    
   126   64  130 1    
   127   65   66 1    
   128   65   69 1    
   129   65  131 1    
   130   66   67 am   BACKBONE|DICT|INTERRES
   131   66   68 2    
   132   67  132 1    
   133   67  133 1    
   134   69   70 1    
   135   69  134 1    
   136   69  135 1    
   137   70   71 1    
   138   71  136 1    
   139   71  137 1    
@<TRIPOS>SUBSTRUCTURE
     1 UNK         1 GROUP             0       ****    0 ROOT    
