@<TRIPOS>MOLECULE
3R136
137   139    1
SMALL
USER_CHARGES


@<TRIPOS>ATOM
      1 CA         34.1370   24.9239    1.6918 C.3       0 UNK        -0.1979 
      2 C          32.9060   25.8017    1.5272 C.2       0 UNK         0.4864 
      3 O          32.7775   26.8030    2.2313 O.2       0 UNK        -0.5359 
      4 N          32.0063   25.4278    0.6130 N.am      1 UNK        -0.4318 
      5 CA         30.7622   26.1274    0.2968 C.3       1 UNK         0.0824 
      6 C6         29.5688   25.6876    1.1906 C.3       12 UNK        -0.0944 
      7 S7         29.2463   23.8871    1.2636 S.3       12 UNK        -0.2672 
      8 C8         30.1564   23.3697    2.7601 C.3       12 UNK         0.0333 
      9 C9         29.6200   24.0385    4.0166 C.ar      12 UNK        -0.0807 
     10 C10        30.2739   25.1496    4.5563 C.ar      12 UNK        -0.0894 
     11 C11        29.7467   25.8171    5.6640 C.ar      12 UNK        -0.0804 
     12 C12        28.5645   25.3530    6.2470 C.ar      12 UNK        -0.0824 
     13 C13        27.9065   24.2356    5.7216 C.ar      12 UNK        -0.0762 
     14 C14        28.4495   23.5702    4.6181 C.ar      12 UNK        -0.0782 
     15 C15        26.5811   23.7778    6.3136 C.3       12 UNK         0.0230 
     16 S16        25.2040   23.9566    5.1295 S.3       12 UNK        -0.2608 
     17 C17        25.3236   25.7193    4.6572 C.3       12 UNK        -0.0989 
     18 CA         25.9350   25.9205    3.2373 C.3       5 UNK         0.0716 
     19 N          25.2169   25.1997    2.1775 N.am      5 UNK        -0.4135 
     20 C          23.9348   25.3640    1.8222 C.2       4 UNK         0.5031 
     21 O          23.1686   26.1608    2.3677 O.2       4 UNK        -0.5229 
     22 CA         23.4352   24.5061    0.6365 C.3       4 UNK         0.0329 
     23 CB         22.1448   25.0755    0.0090 C.3       4 UNK        -0.2001 
     24 N          24.4320   24.2668   -0.4224 N.am      4 UNK        -0.4303 
     25 C          25.1666   25.1938   -1.0535 C.2       3 UNK         0.5044 
     26 O          25.1995   26.3834   -0.7302 O.2       3 UNK        -0.5152 
     27 CA         25.9986   24.7250   -2.2516 C.3       3 UNK         0.0319 
     28 CB         25.1176   24.6712   -3.5166 C.3       3 UNK        -0.2001 
     29 N          27.0907   25.6802   -2.4073 N.am      3 UNK        -0.4354 
     30 C          28.1071   25.6389   -3.2742 C.2       2 UNK         0.4964 
     31 O          28.2657   24.7638   -4.1258 O.2       2 UNK        -0.5047 
     32 CA         29.1449   26.7624   -3.1272 C.3       2 UNK         0.0288 
     33 CB         28.5624   28.1226   -3.5490 C.3       2 UNK        -0.2113 
     34 N          29.6352   26.8426   -1.7498 N.am      2 UNK        -0.4145 
     35 C          30.4674   25.9489   -1.1994 C.2       1 UNK         0.5006 
     36 O          30.9891   25.0170   -1.8206 O.2       1 UNK        -0.5103 
     37 C          26.1956   27.4134    2.9135 C.2       5 UNK         0.5055 
     38 O          26.5697   28.1602    3.8200 O.2       5 UNK        -0.5220 
     39 N          26.0317   27.8407    1.6499 N.am      6 UNK        -0.4450 
     40 CA         26.3738   29.1893    1.1933 C.3       6 UNK         0.0367 
     41 CB         25.6251   29.5114   -0.1109 C.3       6 UNK        -0.1929 
     42 C          27.8926   29.2958    0.9987 C.2       6 UNK         0.5070 
     43 O          28.4406   28.6336    0.1127 O.2       6 UNK        -0.5237 
     44 N          28.5432   30.1065    1.8360 N.am      7 UNK        -0.4739 
     45 CA         29.9876   30.3055    1.8585 C.3       7 UNK         0.0276 
     46 CB         30.6296   29.2618    2.7901 C.3       7 UNK        -0.1927 
     47 C          30.3038   31.7135    2.3694 C.2       7 UNK         0.5013 
     48 O          29.4889   32.3138    3.0756 O.2       7 UNK        -0.5193 
     49 N          31.5130   32.1773    2.0516 N.am      8 UNK        -0.4253 
     50 CA         32.1629   33.3479    2.6253 C.3       8 UNK         0.0242 
     51 CB         31.8525   34.5986    1.7855 C.3       8 UNK        -0.2000 
     52 C          33.6612   33.0354    2.6328 C.2       8 UNK         0.4948 
     53 O          34.1415   32.4123    1.6821 O.2       8 UNK        -0.5275 
     54 N          34.3637   33.4250    3.7052 N.am      9 UNK        -0.4246 
     55 CA         35.8042   33.2502    3.9748 C.3       9 UNK         0.0261 
     56 CB         36.6521   34.0245    2.9456 C.3       9 UNK        -0.1959 
     57 C          36.3091   31.7944    4.1074 C.2       9 UNK         0.5033 
     58 O          37.2755   31.5716    4.8380 O.2       9 UNK        -0.5390 
     59 N          35.6772   30.8492    3.4021 N.am      10 UNK        -0.4215 
     60 CA         35.9707   29.4170    3.3786 C.3       10 UNK         0.0240 
     61 CB         35.4777   28.8382    2.0364 C.3       10 UNK        -0.1982 
     62 C          35.4104   28.6941    4.6221 C.2       10 UNK         0.4970 
     63 O          35.9005   28.9350    5.7263 O.2       10 UNK        -0.4916 
     64 N          34.4269   27.8019    4.4333 N.am      11 UNK        -0.4279 
     65 CA         33.9036   26.8768    5.4502 C.3       11 UNK         0.1003 
     66 C          34.9531   25.8170    5.9111 C.2       11 UNK         0.5709 
     67 N          34.7507   25.1707    7.0509 N.am      11 UNK        -0.7358 
     68 O          35.9282   25.5335    5.2167 O.2       11 UNK        -0.4999 
     69 C69        33.1642   27.6198    6.6049 C.3       12 UNK        -0.0954 
     70 S70        31.7992   26.6395    7.3182 S.3       12 UNK        -0.2268 
     71 C71        30.4327   27.0646    6.1965 C.3       12 UNK         0.0203 
     72 H72        34.0476   23.9911    1.1353 H         1 UNK         0.0888 
     73 H73        35.0234   25.4485    1.3375 H         1 UNK         0.0888 
     74 H74        34.2843   24.6769    2.7429 H         1 UNK         0.0888 
     75 H75        32.1785   24.6307    0.0132 H         1 UNK         0.3017 
     76 H76        30.9272   27.1969    0.4445 H         1 UNK         0.0873 
     77 H77        29.7133   26.0761    2.1941 H         1 UNK         0.0745 
     78 H78        28.6461   26.1590    0.8511 H         1 UNK         0.0745 
     79 H79        30.0751   22.2867    2.8625 H         1 UNK         0.0705 
     80 H80        31.2186   23.5806    2.6356 H         1 UNK         0.0705 
     81 H81        31.1735   25.5206    4.0866 H         1 UNK         0.1334 
     82 H82        28.1449   25.8779    7.0944 H         1 UNK         0.1417 
     83 H83        27.9321   22.7187    4.1968 H         1 UNK         0.1562 
     84 H84        26.3438   24.3378    7.2196 H         1 UNK         0.0748 
     85 H85        26.6615   22.7314    6.6110 H         1 UNK         0.0748 
     86 H86        25.9115   26.2435    5.4123 H         1 UNK         0.0940 
     87 H87        24.3267   26.1584    4.7131 H         1 UNK         0.0940 
     88 H88        26.9311   25.4780    3.2495 H         1 UNK         0.0703 
     89 H89        25.7638   24.5229    1.6654 H         1 UNK         0.3081 
     90 H90        23.1941   23.5290    1.0578 H         1 UNK         0.0719 
     91 H91        22.3045   26.0750   -0.3975 H         1 UNK         0.0809 
     92 H92        21.7810   24.4398   -0.7982 H         1 UNK         0.0809 
     93 H93        21.3444   25.1467    0.7467 H         1 UNK         0.0809 
     94 H94        24.5000   23.3105   -0.7438 H         1 UNK         0.2990 
     95 H95        26.4178   23.7398   -2.0386 H         1 UNK         0.0690 
     96 H96        25.6655   24.2873   -4.3766 H         1 UNK         0.0788 
     97 H97        24.7326   25.6577   -3.7784 H         1 UNK         0.0788 
     98 H98        24.2589   24.0147   -3.3702 H         1 UNK         0.0788 
     99 H99        27.0348   26.4506   -1.7514 H         1 UNK         0.2993 
    100 H100       29.9855   26.5321   -3.7858 H         1 UNK         0.0949 
    101 H101       28.1720   28.0814   -4.5668 H         1 UNK         0.0767 
    102 H102       27.7469   28.4386   -2.8970 H         1 UNK         0.0767 
    103 H103       29.3254   28.9010   -3.5259 H         1 UNK         0.0767 
    104 H104       29.2316   27.5657   -1.1540 H         1 UNK         0.3013 
    105 H105       25.7262   27.1906    0.9300 H         1 UNK         0.3121 
    106 H106       26.0510   29.9099    1.9480 H         1 UNK         0.0774 
    107 H107       25.7966   30.5461   -0.4093 H         1 UNK         0.0815 
    108 H108       25.9525   28.8803   -0.9374 H         1 UNK         0.0815 
    109 H109       24.5494   29.3786    0.0048 H         1 UNK         0.0815 
    110 H110       28.0319   30.6533    2.5181 H         1 UNK         0.2987 
    111 H111       30.3888   30.1998    0.8476 H         1 UNK         0.0949 
    112 H112       31.7179   29.3339    2.7792 H         1 UNK         0.0806 
    113 H113       30.3025   29.3970    3.8214 H         1 UNK         0.0806 
    114 H114       30.3720   28.2473    2.4963 H         1 UNK         0.0806 
    115 H115       32.1341   31.6147    1.4820 H         1 UNK         0.3010 
    116 H116       31.8183   33.4958    3.6514 H         1 UNK         0.0829 
    117 H117       30.7822   34.8047    1.7636 H         1 UNK         0.0813 
    118 H118       32.3449   35.4791    2.1999 H         1 UNK         0.0813 
    119 H119       32.1930   34.4868    0.7552 H         1 UNK         0.0813 
    120 H120       33.8570   33.8958    4.4431 H         1 UNK         0.3038 
    121 H121       35.9730   33.7146    4.9479 H         1 UNK         0.0769 
    122 H122       36.5475   33.6151    1.9404 H         1 UNK         0.0811 
    123 H123       37.7114   33.9818    3.2026 H         1 UNK         0.0811 
    124 H124       36.3704   35.0769    2.9104 H         1 UNK         0.0811 
    125 H125       34.9534   31.1791    2.7684 H         1 UNK         0.3204 
    126 H126       37.0548   29.2901    3.4106 H         1 UNK         0.0748 
    127 H127       35.9834   29.3166    1.1972 H         1 UNK         0.0771 
    128 H128       35.6879   27.7706    1.9640 H         1 UNK         0.0771 
    129 H129       34.4057   28.9821    1.8951 H         1 UNK         0.0771 
    130 H130       34.0616   27.6462    3.4986 H         1 UNK         0.2980 
    131 H131       33.1634   26.2956    4.9032 H         1 UNK         0.0545 
    132 H132       35.4112   24.4705    7.3493 H         1 UNK         0.3459 
    133 H133       33.9355   25.3744    7.6102 H         1 UNK         0.3459 
    134 H134       33.8599   27.8922    7.4005 H         1 UNK         0.0616 
    135 H135       32.7491   28.5644    6.2498 H         1 UNK         0.0616 
    136 H136       29.7214   27.7013    6.7246 H         1 UNK         0.0634 
    137 H137       30.8012   27.6517    5.3553 H         1 UNK         0.0634 
@<TRIPOS>BOND
     1    1    2 1    
     2    1   72 1    
     3    1   73 1    
     4    1   74 1    
     5    2    3 2    
     6    2    4 am   BACKBONE|DICT|INTERRES
     7    4    5 1    
     8    4   75 1    
     9    5    6 1    
    10    5   35 1    
    11    5   76 1    
    12    6    7 1    
    13    6   77 1    
    14    6   78 1    
    15    7    8 1    
    16    8    9 1    
    17    8   79 1    
    18    8   80 1    
    19    9   10 ar   
    20    9   14 ar   
    21   10   11 ar   
    22   10   81 1    
    23   11   12 ar   
    24   11   71 1    
    25   12   13 ar   
    26   12   82 1    
    27   13   14 ar   
    28   13   15 1    
    29   14   83 1    
    30   15   16 1    
    31   15   84 1    
    32   15   85 1    
    33   16   17 1    
    34   17   18 1    
    35   17   86 1    
    36   17   87 1    
    37   18   19 1    
    38   18   37 1    
    39   18   88 1    
    40   19   20 am   BACKBONE|DICT|INTERRES
    41   19   89 1    
    42   20   21 2    
    43   20   22 1    
    44   22   23 1    
    45   22   24 1    
    46   22   90 1    
    47   23   91 1    
    48   23   92 1    
    49   23   93 1    
    50   24   25 am   BACKBONE|DICT|INTERRES
    51   24   94 1    
    52   25   26 2    
    53   25   27 1    
    54   27   28 1    
    55   27   29 1    
    56   27   95 1    
    57   28   96 1    
    58   28   97 1    
    59   28   98 1    
    60   29   30 am   BACKBONE|DICT|INTERRES
    61   29   99 1    
    62   30   31 2    
    63   30   32 1    
    64   32   33 1    
    65   32   34 1    
    66   32  100 1    
    67   33  101 1    
    68   33  102 1    
    69   33  103 1    
    70   34   35 am   BACKBONE|DICT|INTERRES
    71   34  104 1    
    72   35   36 2    
    73   37   38 2    
    74   37   39 am   BACKBONE|DICT|INTERRES
    75   39   40 1    
    76   39  105 1    
    77   40   41 1    
    78   40   42 1    
    79   40  106 1    
    80   41  107 1    
    81   41  108 1    
    82   41  109 1    
    83   42   43 2    
    84   42   44 am   BACKBONE|DICT|INTERRES
    85   44   45 1    
    86   44  110 1    
    87   45   46 1    
    88   45   47 1    
    89   45  111 1    
    90   46  112 1    
    91   46  113 1    
    92   46  114 1    
    93   47   48 2    
    94   47   49 am   BACKBONE|DICT|INTERRES
    95   49   50 1    
    96   49  115 1    
    97   50   51 1    
    98   50   52 1    
    99   50  116 1    
   100   51  117 1    
   101   51  118 1    
   102   51  119 1    
   103   52   53 2    
   104   52   54 am   BACKBONE|DICT|INTERRES
   105   54   55 1    
   106   54  120 1    
   107   55   56 1    
   108   55   57 1    
   109   55  121 1    
   110   56  122 1    
   111   56  123 1    
   112   56  124 1    
   113   57   58 2    
   114   57   59 am   BACKBONE|DICT|INTERRES
   115   59   60 1    
   116   59  125 1    
   117   60   61 1    
   118   60   62 1    
   119   60  126 1    
   120   61  127 1    
   121   61  128 1    
   122   61  129 1    
   123   62   63 2    
   124   62   64 am   BACKBONE|DICT|INTERRES
   125   64   65 1    
   126   64  130 1    
   127   65   66 1    
   128   65   69 1    
   129   65  131 1    
   130   66   67 am   BACKBONE|DICT|INTERRES
   131   66   68 2    
   132   67  132 1    
   133   67  133 1    
   134   69   70 1    
   135   69  134 1    
   136   69  135 1    
   137   70   71 1    
   138   71  136 1    
   139   71  137 1    
@<TRIPOS>SUBSTRUCTURE
     1 UNK         1 GROUP             0       ****    0 ROOT    
