@<TRIPOS>MOLECULE
3R136
137   139    1
SMALL
USER_CHARGES


@<TRIPOS>ATOM
      1 CA         31.3423   26.1014   -0.5872 C.3       0 UNK        -0.1979 
      2 C          30.1035   25.2965   -0.2301 C.2       0 UNK         0.4864 
      3 O          29.0198   25.8627   -0.0985 O.2       0 UNK        -0.5359 
      4 N          30.2549   23.9765   -0.0795 N.am      1 UNK        -0.4318 
      5 CA         29.1563   23.0328    0.1297 C.3       1 UNK         0.0824 
      6 C6         29.6573   21.7290    0.8092 C.3       12 UNK        -0.0944 
      7 S7         29.6130   21.8013    2.6286 S.3       12 UNK        -0.2672 
      8 C8         31.1137   22.7497    3.0560 C.3       12 UNK         0.0333 
      9 C9         30.8128   24.1943    3.4492 C.ar      12 UNK        -0.0807 
     10 C10        31.6179   25.2369    2.9786 C.ar      12 UNK        -0.0894 
     11 C11        31.3697   26.5599    3.3614 C.ar      12 UNK        -0.0804 
     12 C12        30.3005   26.8401    4.2185 C.ar      12 UNK        -0.0824 
     13 C13        29.4936   25.8065    4.7044 C.ar      12 UNK        -0.0762 
     14 C14        29.7613   24.4898    4.3238 C.ar      12 UNK        -0.0782 
     15 C15        28.3469   26.0943    5.6630 C.3       12 UNK         0.0230 
     16 S16        26.7207   25.9122    4.8604 S.3       12 UNK        -0.2608 
     17 C17        26.6850   27.3774    3.7783 C.3       12 UNK        -0.0989 
     18 CA         26.5425   27.0099    2.2795 C.3       5 UNK         0.0716 
     19 N          25.2422   26.4053    1.9867 N.am      5 UNK        -0.4135 
     20 C          24.9361   25.7809    0.8449 C.2       4 UNK         0.5031 
     21 O          25.7537   25.5505   -0.0536 O.2       4 UNK        -0.5229 
     22 CA         23.4712   25.3466    0.6716 C.3       4 UNK         0.0329 
     23 CB         22.5044   26.5459    0.6938 C.3       4 UNK        -0.2001 
     24 N          23.3748   24.6683   -0.6123 N.am      4 UNK        -0.4303 
     25 C          22.5498   23.6762   -0.9590 C.2       3 UNK         0.5044 
     26 O          21.6314   23.2635   -0.2499 O.2       3 UNK        -0.5152 
     27 CA         22.8083   23.0243   -2.3349 C.3       3 UNK         0.0319 
     28 CB         21.7871   23.5251   -3.3692 C.3       3 UNK        -0.2001 
     29 N          24.1665   23.2780   -2.8371 N.am      3 UNK        -0.4354 
     30 C          25.2800   22.7541   -2.3037 C.2       2 UNK         0.4964 
     31 O          25.2632   21.8685   -1.4457 O.2       2 UNK        -0.5047 
     32 CA         26.6293   23.3370   -2.7629 C.3       2 UNK         0.0288 
     33 CB         26.5129   24.6834   -3.5091 C.3       2 UNK        -0.2113 
     34 N          27.4682   23.5309   -1.5803 N.am      2 UNK        -0.4145 
     35 C          28.4998   22.7505   -1.2367 C.2       1 UNK         0.5006 
     36 O          28.9548   21.8563   -1.9553 O.2       1 UNK        -0.5103 
     37 C          26.7422   28.2707    1.4176 C.2       5 UNK         0.5055 
     38 O          26.0806   29.2820    1.6666 O.2       5 UNK        -0.5220 
     39 N          27.6798   28.2177    0.4659 N.am      6 UNK        -0.4450 
     40 CA         28.2470   29.3896   -0.1985 C.3       6 UNK         0.0367 
     41 CB         28.7654   28.9896   -1.5915 C.3       6 UNK        -0.1929 
     42 C          29.3516   29.9480    0.7136 C.2       6 UNK         0.5070 
     43 O          30.5254   29.6204    0.5351 O.2       6 UNK        -0.5237 
     44 N          28.9267   30.7001    1.7376 N.am      7 UNK        -0.4739 
     45 CA         29.7533   31.1961    2.8393 C.3       7 UNK         0.0276 
     46 CB         28.8560   31.9427    3.8394 C.3       7 UNK        -0.1927 
     47 C          30.9192   32.0918    2.3865 C.2       7 UNK         0.5013 
     48 O          30.7630   32.8949    1.4631 O.2       7 UNK        -0.5193 
     49 N          32.0483   31.9575    3.0854 N.am      8 UNK        -0.4253 
     50 CA         33.2783   32.7179    2.9067 C.3       8 UNK         0.0242 
     51 CB         34.1265   32.0824    1.7897 C.3       8 UNK        -0.2000 
     52 C          34.0247   32.6911    4.2436 C.2       8 UNK         0.4948 
     53 O          33.7789   31.7921    5.0531 O.2       8 UNK        -0.5275 
     54 N          34.9460   33.6437    4.4436 N.am      9 UNK        -0.4246 
     55 CA         35.7419   33.7974    5.6706 C.3       9 UNK         0.0261 
     56 CB         36.6371   35.0412    5.5498 C.3       9 UNK        -0.1959 
     57 C          36.5840   32.5611    6.0378 C.2       9 UNK         0.5033 
     58 O          36.7565   32.2764    7.2238 O.2       9 UNK        -0.5390 
     59 N          37.0459   31.8229    5.0186 N.am      10 UNK        -0.4215 
     60 CA         37.7608   30.5505    5.1521 C.3       10 UNK         0.0240 
     61 CB         38.2891   30.1256    3.7720 C.3       10 UNK        -0.1982 
     62 C          36.9182   29.4188    5.7734 C.2       10 UNK         0.4970 
     63 O          37.4986   28.4907    6.3383 O.2       10 UNK        -0.4916 
     64 N          35.5861   29.5113    5.6668 N.am      11 UNK        -0.4279 
     65 CA         34.6268   28.5710    6.2646 C.3       11 UNK         0.1003 
     66 C          34.2054   28.9604    7.7122 C.2       11 UNK         0.5709 
     67 N          34.6963   30.0538    8.2873 N.am      11 UNK        -0.7358 
     68 O          33.4296   28.2429    8.3392 O.2       11 UNK        -0.4999 
     69 C69        33.3949   28.3465    5.3457 C.3       12 UNK        -0.0954 
     70 S70        33.8667   27.7296    3.6951 S.3       12 UNK        -0.2268 
     71 C71        32.2591   27.6839    2.8470 C.3       12 UNK         0.0203 
     72 H72        31.2786   27.0997   -0.1577 H         1 UNK         0.0888 
     73 H73        32.2513   25.6289   -0.2160 H         1 UNK         0.0888 
     74 H74        31.4221   26.2049   -1.6688 H         1 UNK         0.0888 
     75 H75        31.1623   23.5618   -0.2331 H         1 UNK         0.3017 
     76 H76        28.4003   23.4917    0.7722 H         1 UNK         0.0873 
     77 H77        30.6564   21.4519    0.4682 H         1 UNK         0.0745 
     78 H78        29.0172   20.8844    0.5449 H         1 UNK         0.0745 
     79 H79        31.6003   22.2616    3.9012 H         1 UNK         0.0705 
     80 H80        31.8239   22.7088    2.2291 H         1 UNK         0.0705 
     81 H81        32.4490   25.0215    2.3213 H         1 UNK         0.1334 
     82 H82        30.1067   27.8605    4.5185 H         1 UNK         0.1417 
     83 H83        29.1421   23.6920    4.7108 H         1 UNK         0.1562 
     84 H84        28.4348   27.0940    6.0917 H         1 UNK         0.0748 
     85 H85        28.4015   25.4006    6.5033 H         1 UNK         0.0748 
     86 H86        27.5921   27.9622    3.9414 H         1 UNK         0.0940 
     87 H87        25.8619   28.0187    4.1001 H         1 UNK         0.0940 
     88 H88        27.3242   26.2879    2.0299 H         1 UNK         0.0703 
     89 H89        24.5189   26.5576    2.6734 H         1 UNK         0.3081 
     90 H90        23.2225   24.6487    1.4738 H         1 UNK         0.0719 
     91 H91        22.7650   27.2856   -0.0645 H         1 UNK         0.0809 
     92 H92        21.4775   26.2291    0.5104 H         1 UNK         0.0809 
     93 H93        22.5149   27.0498    1.6606 H         1 UNK         0.0809 
     94 H94        24.1467   24.8877   -1.2293 H         1 UNK         0.2990 
     95 H95        22.6791   21.9462   -2.2180 H         1 UNK         0.0690 
     96 H96        21.9185   23.0275   -4.3303 H         1 UNK         0.0788 
     97 H97        21.8700   24.6005   -3.5318 H         1 UNK         0.0788 
     98 H98        20.7671   23.3235   -3.0387 H         1 UNK         0.0788 
     99 H99        24.2622   23.9867   -3.5507 H         1 UNK         0.2993 
    100 H100       27.0772   22.6080   -3.4414 H         1 UNK         0.0949 
    101 H101       26.0144   25.4439   -2.9061 H         1 UNK         0.0767 
    102 H102       27.4999   25.0695   -3.7656 H         1 UNK         0.0767 
    103 H103       25.9645   24.5779   -4.4460 H         1 UNK         0.0767 
    104 H104       27.1625   24.2565   -0.9372 H         1 UNK         0.3013 
    105 H105       28.1642   27.3317    0.3011 H         1 UNK         0.3121 
    106 H106       27.4800   30.1556   -0.3330 H         1 UNK         0.0774 
    107 H107       29.5329   28.2183   -1.5366 H         1 UNK         0.0815 
    108 H108       29.2018   29.8477   -2.1039 H         1 UNK         0.0815 
    109 H109       27.9585   28.6097   -2.2181 H         1 UNK         0.0815 
    110 H110       27.9347   30.8852    1.8031 H         1 UNK         0.2987 
    111 H111       30.1664   30.3209    3.3432 H         1 UNK         0.0949 
    112 H112       28.0683   31.2966    4.2280 H         1 UNK         0.0806 
    113 H113       29.4325   32.2977    4.6949 H         1 UNK         0.0806 
    114 H114       28.3827   32.8129    3.3824 H         1 UNK         0.0806 
    115 H115       32.0840   31.3348    3.8838 H         1 UNK         0.3010 
    116 H116       33.0361   33.7529    2.6557 H         1 UNK         0.0829 
    117 H117       35.0541   32.6343    1.6343 H         1 UNK         0.0813 
    118 H118       34.3923   31.0505    2.0248 H         1 UNK         0.0813 
    119 H119       33.5911   32.0785    0.8399 H         1 UNK         0.0813 
    120 H120       35.0911   34.3370    3.7229 H         1 UNK         0.3038 
    121 H121       35.0406   33.9616    6.4915 H         1 UNK         0.0769 
    122 H122       37.3394   34.9560    4.7195 H         1 UNK         0.0811 
    123 H123       37.2233   35.1895    6.4580 H         1 UNK         0.0811 
    124 H124       36.0453   35.9443    5.3992 H         1 UNK         0.0811 
    125 H125       36.8524   32.1395    4.0798 H         1 UNK         0.3204 
    126 H126       38.6154   30.7180    5.8110 H         1 UNK         0.0748 
    127 H127       38.8561   29.1960    3.8402 H         1 UNK         0.0771 
    128 H128       37.4771   29.9599    3.0625 H         1 UNK         0.0771 
    129 H129       38.9563   30.8786    3.3518 H         1 UNK         0.0771 
    130 H130       35.1704   30.3319    5.2409 H         1 UNK         0.2980 
    131 H131       35.1176   27.6014    6.3665 H         1 UNK         0.0545 
    132 H132       35.3450   30.6550    7.7969 H         1 UNK         0.3459 
    133 H133       34.4146   30.2814    9.2274 H         1 UNK         0.3459 
    134 H134       32.8270   29.2705    5.2294 H         1 UNK         0.0616 
    135 H135       32.7154   27.6180    5.7915 H         1 UNK         0.0616 
    136 H136       32.4401   27.5468    1.7818 H         1 UNK         0.0634 
    137 H137       31.7685   28.6517    2.9471 H         1 UNK         0.0634 
@<TRIPOS>BOND
     1    1    2 1    
     2    1   72 1    
     3    1   73 1    
     4    1   74 1    
     5    2    3 2    
     6    2    4 am   BACKBONE|DICT|INTERRES
     7    4    5 1    
     8    4   75 1    
     9    5    6 1    
    10    5   35 1    
    11    5   76 1    
    12    6    7 1    
    13    6   77 1    
    14    6   78 1    
    15    7    8 1    
    16    8    9 1    
    17    8   79 1    
    18    8   80 1    
    19    9   10 ar   
    20    9   14 ar   
    21   10   11 ar   
    22   10   81 1    
    23   11   12 ar   
    24   11   71 1    
    25   12   13 ar   
    26   12   82 1    
    27   13   14 ar   
    28   13   15 1    
    29   14   83 1    
    30   15   16 1    
    31   15   84 1    
    32   15   85 1    
    33   16   17 1    
    34   17   18 1    
    35   17   86 1    
    36   17   87 1    
    37   18   19 1    
    38   18   37 1    
    39   18   88 1    
    40   19   20 am   BACKBONE|DICT|INTERRES
    41   19   89 1    
    42   20   21 2    
    43   20   22 1    
    44   22   23 1    
    45   22   24 1    
    46   22   90 1    
    47   23   91 1    
    48   23   92 1    
    49   23   93 1    
    50   24   25 am   BACKBONE|DICT|INTERRES
    51   24   94 1    
    52   25   26 2    
    53   25   27 1    
    54   27   28 1    
    55   27   29 1    
    56   27   95 1    
    57   28   96 1    
    58   28   97 1    
    59   28   98 1    
    60   29   30 am   BACKBONE|DICT|INTERRES
    61   29   99 1    
    62   30   31 2    
    63   30   32 1    
    64   32   33 1    
    65   32   34 1    
    66   32  100 1    
    67   33  101 1    
    68   33  102 1    
    69   33  103 1    
    70   34   35 am   BACKBONE|DICT|INTERRES
    71   34  104 1    
    72   35   36 2    
    73   37   38 2    
    74   37   39 am   BACKBONE|DICT|INTERRES
    75   39   40 1    
    76   39  105 1    
    77   40   41 1    
    78   40   42 1    
    79   40  106 1    
    80   41  107 1    
    81   41  108 1    
    82   41  109 1    
    83   42   43 2    
    84   42   44 am   BACKBONE|DICT|INTERRES
    85   44   45 1    
    86   44  110 1    
    87   45   46 1    
    88   45   47 1    
    89   45  111 1    
    90   46  112 1    
    91   46  113 1    
    92   46  114 1    
    93   47   48 2    
    94   47   49 am   BACKBONE|DICT|INTERRES
    95   49   50 1    
    96   49  115 1    
    97   50   51 1    
    98   50   52 1    
    99   50  116 1    
   100   51  117 1    
   101   51  118 1    
   102   51  119 1    
   103   52   53 2    
   104   52   54 am   BACKBONE|DICT|INTERRES
   105   54   55 1    
   106   54  120 1    
   107   55   56 1    
   108   55   57 1    
   109   55  121 1    
   110   56  122 1    
   111   56  123 1    
   112   56  124 1    
   113   57   58 2    
   114   57   59 am   BACKBONE|DICT|INTERRES
   115   59   60 1    
   116   59  125 1    
   117   60   61 1    
   118   60   62 1    
   119   60  126 1    
   120   61  127 1    
   121   61  128 1    
   122   61  129 1    
   123   62   63 2    
   124   62   64 am   BACKBONE|DICT|INTERRES
   125   64   65 1    
   126   64  130 1    
   127   65   66 1    
   128   65   69 1    
   129   65  131 1    
   130   66   67 am   BACKBONE|DICT|INTERRES
   131   66   68 2    
   132   67  132 1    
   133   67  133 1    
   134   69   70 1    
   135   69  134 1    
   136   69  135 1    
   137   70   71 1    
   138   71  136 1    
   139   71  137 1    
@<TRIPOS>SUBSTRUCTURE
     1 UNK         1 GROUP             0       ****    0 ROOT    
