@<TRIPOS>MOLECULE
3R136
137   139    1
SMALL
USER_CHARGES


@<TRIPOS>ATOM
      1 CA         30.7404   26.1197    3.0901 C.3       0 UNK        -0.1979 
      2 C          29.9080   24.8920    3.4074 C.2       0 UNK         0.4864 
      3 O          28.9266   24.9878    4.1448 O.2       0 UNK        -0.5359 
      4 N          30.2954   23.7343    2.8549 N.am      1 UNK        -0.4318 
      5 CA         29.6167   22.4517    3.0710 C.3       1 UNK         0.0824 
      6 C6         30.5702   21.2512    2.8396 C.3       12 UNK        -0.0944 
      7 S7         31.0072   20.9130    1.0971 S.3       12 UNK        -0.2672 
      8 C8         32.6818   21.6204    0.9490 C.3       12 UNK         0.0333 
      9 C9         32.6910   23.1049    0.5939 C.ar      12 UNK        -0.0807 
     10 C10        33.5863   23.9697    1.2331 C.ar      12 UNK        -0.0894 
     11 C11        33.6759   25.3104    0.8465 C.ar      12 UNK        -0.0804 
     12 C12        32.8617   25.7816   -0.1868 C.ar      12 UNK        -0.0824 
     13 C13        31.9180   24.9485   -0.7984 C.ar      12 UNK        -0.0762 
     14 C14        31.8581   23.6056   -0.4149 C.ar      12 UNK        -0.0782 
     15 C15        30.9605   25.4518   -1.8820 C.3       12 UNK         0.0230 
     16 S16        30.6569   27.2551   -1.8894 S.3       12 UNK        -0.2608 
     17 C17        30.0406   27.5458   -0.1952 C.3       12 UNK        -0.0989 
     18 CA         28.8517   28.5352   -0.1645 C.3       5 UNK         0.0716 
     19 N          27.6789   27.9784   -0.8395 N.am      5 UNK        -0.4135 
     20 C          27.0093   28.5612   -1.8430 C.2       4 UNK         0.5031 
     21 O          27.2953   29.6637   -2.3117 O.2       4 UNK        -0.5229 
     22 CA         25.8041   27.7952   -2.4258 C.3       4 UNK         0.0329 
     23 CB         26.2133   27.0645   -3.7151 C.3       4 UNK        -0.2001 
     24 N          25.2049   26.8287   -1.5002 N.am      4 UNK        -0.4303 
     25 C          24.6447   27.1371   -0.3223 C.2       3 UNK         0.5044 
     26 O          24.5179   28.2895    0.0903 O.2       3 UNK        -0.5152 
     27 CA         24.2135   25.9644    0.5765 C.3       3 UNK         0.0319 
     28 CB         22.7263   25.6441    0.3597 C.3       3 UNK        -0.2001 
     29 N          25.0051   24.7370    0.4142 N.am      3 UNK        -0.4354 
     30 C          26.3344   24.6348    0.5591 C.2       2 UNK         0.4964 
     31 O          27.0882   25.5942    0.7479 O.2       2 UNK        -0.5047 
     32 CA         26.9236   23.2287    0.4087 C.3       2 UNK         0.0288 
     33 CB         27.2965   22.9626   -1.0592 C.3       2 UNK        -0.2113 
     34 N          28.1272   23.1324    1.2292 N.am      2 UNK        -0.4145 
     35 C          28.2897   22.3262    2.2868 C.2       1 UNK         0.5006 
     36 O          27.4473   21.5069    2.6598 O.2       1 UNK        -0.5103 
     37 C          28.5205   28.9742    1.2782 C.2       5 UNK         0.5055 
     38 O          29.4439   29.3020    2.0272 O.2       5 UNK        -0.5220 
     39 N          27.2330   29.0232    1.6611 N.am      6 UNK        -0.4450 
     40 CA         26.7801   29.4187    3.0036 C.3       6 UNK         0.0367 
     41 CB         25.2692   29.1743    3.1339 C.3       6 UNK        -0.1929 
     42 C          27.1241   30.8698    3.3940 C.2       6 UNK         0.5070 
     43 O          27.1530   31.1797    4.5841 O.2       6 UNK        -0.5237 
     44 N          27.4006   31.7261    2.4006 N.am      7 UNK        -0.4739 
     45 CA         27.9246   33.0800    2.5949 C.3       7 UNK         0.0276 
     46 CB         27.7674   33.8738    1.2880 C.3       7 UNK        -0.1927 
     47 C          29.3935   33.0972    3.0622 C.2       7 UNK         0.5013 
     48 O          29.7929   34.0488    3.7343 O.2       7 UNK        -0.5193 
     49 N          30.1667   32.0624    2.7002 N.am      8 UNK        -0.4253 
     50 CA         31.5563   31.8764    3.1209 C.3       8 UNK         0.0242 
     51 CB         32.3531   31.1992    1.9952 C.3       8 UNK        -0.2000 
     52 C          31.6310   31.0580    4.4174 C.2       8 UNK         0.4948 
     53 O          32.4059   31.4182    5.3055 O.2       8 UNK        -0.5275 
     54 N          30.8197   29.9918    4.5012 N.am      9 UNK        -0.4246 
     55 CA         30.5356   29.1251    5.6548 C.3       9 UNK         0.0261 
     56 CB         29.8228   29.9146    6.7705 C.3       9 UNK        -0.1959 
     57 C          31.7264   28.3346    6.2304 C.2       9 UNK         0.5033 
     58 O          31.6449   27.1097    6.3191 O.2       9 UNK        -0.5390 
     59 N          32.7782   29.0378    6.6644 N.am      10 UNK        -0.4215 
     60 CA         33.9488   28.4730    7.3377 C.3       10 UNK         0.0240 
     61 CB         34.7279   29.5666    8.0886 C.3       10 UNK        -0.1982 
     62 C          34.8594   27.5562    6.4857 C.2       10 UNK         0.4970 
     63 O          35.2943   26.5413    7.0280 O.2       10 UNK        -0.4916 
     64 N          35.1550   27.8052    5.1995 N.am      11 UNK        -0.4279 
     65 CA         34.9639   29.0142    4.3862 C.3       11 UNK         0.1003 
     66 C          35.9072   30.1631    4.8207 C.2       11 UNK         0.5709 
     67 N          35.3787   31.3655    5.0051 N.am      11 UNK        -0.7358 
     68 O          37.1145   29.9773    4.9576 O.2       11 UNK        -0.4999 
     69 C69        35.1605   28.6940    2.8836 C.3       12 UNK        -0.0954 
     70 S70        33.7834   27.6902    2.2463 S.3       12 UNK        -0.2268 
     71 C71        34.6515   26.2587    1.5314 C.3       12 UNK         0.0203 
     72 H72        30.1276   27.0182    3.1290 H         1 UNK         0.0888 
     73 H73        31.5467   26.2233    3.8146 H         1 UNK         0.0888 
     74 H74        31.1827   26.0516    2.0990 H         1 UNK         0.0888 
     75 H75        31.1086   23.7065    2.2538 H         1 UNK         0.3017 
     76 H76        29.3354   22.4173    4.1262 H         1 UNK         0.0873 
     77 H77        31.4799   21.3808    3.4277 H         1 UNK         0.0745 
     78 H78        30.1061   20.3450    3.2333 H         1 UNK         0.0745 
     79 H79        33.2425   21.4288    1.8651 H         1 UNK         0.0705 
     80 H80        33.2067   21.0846    0.1572 H         1 UNK         0.0705 
     81 H81        34.2331   23.5939    2.0145 H         1 UNK         0.1334 
     82 H82        32.9531   26.8156   -0.4871 H         1 UNK         0.1417 
     83 H83        31.1646   22.9417   -0.9139 H         1 UNK         0.1562 
     84 H84        29.9972   24.9510   -1.7817 H         1 UNK         0.0748 
     85 H85        31.3581   25.1649   -2.8562 H         1 UNK         0.0748 
     86 H86        30.8808   27.9246    0.3906 H         1 UNK         0.0940 
     87 H87        29.7491   26.5970    0.2582 H         1 UNK         0.0940 
     88 H88        29.1739   29.4470   -0.6714 H         1 UNK         0.0703 
     89 H89        27.3642   27.0791   -0.4857 H         1 UNK         0.3081 
     90 H90        25.0388   28.5333   -2.6752 H         1 UNK         0.0719 
     91 H91        26.9666   26.2989   -3.5233 H         1 UNK         0.0809 
     92 H92        25.3574   26.5849   -4.1904 H         1 UNK         0.0809 
     93 H93        26.6357   27.7610   -4.4410 H         1 UNK         0.0809 
     94 H94        25.2673   25.8540   -1.7551 H         1 UNK         0.2990 
     95 H95        24.3416   26.2894    1.6103 H         1 UNK         0.0690 
     96 H96        22.3728   24.8955    1.0690 H         1 UNK         0.0788 
     97 H97        22.5357   25.2709   -0.6474 H         1 UNK         0.0788 
     98 H98        22.1106   26.5341    0.4994 H         1 UNK         0.0788 
     99 H99        24.4785   23.8947    0.2297 H         1 UNK         0.2993 
    100 H100       26.1799   22.4951    0.7277 H         1 UNK         0.0949 
    101 H101       27.7602   21.9827   -1.1765 H         1 UNK         0.0767 
    102 H102       26.4129   22.9809   -1.6984 H         1 UNK         0.0767 
    103 H103       27.9924   23.7088   -1.4430 H         1 UNK         0.0767 
    104 H104       28.8322   23.8333    1.0540 H         1 UNK         0.3013 
    105 H105       26.5112   28.7696    0.9974 H         1 UNK         0.3121 
    106 H106       27.2891   28.7710    3.7209 H         1 UNK         0.0774 
    107 H107       24.7013   29.7647    2.4140 H         1 UNK         0.0815 
    108 H108       24.9130   29.4435    4.1293 H         1 UNK         0.0815 
    109 H109       25.0237   28.1244    2.9797 H         1 UNK         0.0815 
    110 H110       27.3189   31.3967    1.4498 H         1 UNK         0.2987 
    111 H111       27.3292   33.5710    3.3682 H         1 UNK         0.0949 
    112 H112       28.3330   33.4250    0.4704 H         1 UNK         0.0806 
    113 H113       26.7226   33.9330    0.9824 H         1 UNK         0.0806 
    114 H114       28.1260   34.8972    1.4085 H         1 UNK         0.0806 
    115 H115       29.7418   31.2886    2.2023 H         1 UNK         0.3010 
    116 H116       32.0123   32.8504    3.3120 H         1 UNK         0.0829 
    117 H117       31.9919   30.1925    1.7822 H         1 UNK         0.0813 
    118 H118       32.3001   31.7748    1.0712 H         1 UNK         0.0813 
    119 H119       33.4060   31.1207    2.2642 H         1 UNK         0.0813 
    120 H120       30.2950   29.7555    3.6616 H         1 UNK         0.3038 
    121 H121       29.8257   28.3830    5.2853 H         1 UNK         0.0769 
    122 H122       29.5616   29.2627    7.6052 H         1 UNK         0.0811 
    123 H123       30.4448   30.7174    7.1673 H         1 UNK         0.0811 
    124 H124       28.8970   30.3606    6.4096 H         1 UNK         0.0811 
    125 H125       32.7669   30.0395    6.4837 H         1 UNK         0.3204 
    126 H126       33.5483   27.8180    8.1151 H         1 UNK         0.0748 
    127 H127       35.6734   29.1847    8.4766 H         1 UNK         0.0771 
    128 H128       34.9526   30.4279    7.4647 H         1 UNK         0.0771 
    129 H129       34.1562   29.9301    8.9427 H         1 UNK         0.0771 
    130 H130       35.7289   27.1144    4.7426 H         1 UNK         0.2980 
    131 H131       33.9403   29.3570    4.4909 H         1 UNK         0.0545 
    132 H132       34.3773   31.5140    4.9548 H         1 UNK         0.3459 
    133 H133       35.9826   32.1283    5.2677 H         1 UNK         0.3459 
    134 H134       35.1953   29.6068    2.2868 H         1 UNK         0.0616 
    135 H135       36.1120   28.1868    2.7130 H         1 UNK         0.0616 
    136 H136       35.2049   25.7476    2.3205 H         1 UNK         0.0634 
    137 H137       35.3841   26.6061    0.8016 H         1 UNK         0.0634 
@<TRIPOS>BOND
     1    1    2 1    
     2    1   72 1    
     3    1   73 1    
     4    1   74 1    
     5    2    3 2    
     6    2    4 am   BACKBONE|DICT|INTERRES
     7    4    5 1    
     8    4   75 1    
     9    5    6 1    
    10    5   35 1    
    11    5   76 1    
    12    6    7 1    
    13    6   77 1    
    14    6   78 1    
    15    7    8 1    
    16    8    9 1    
    17    8   79 1    
    18    8   80 1    
    19    9   10 ar   
    20    9   14 ar   
    21   10   11 ar   
    22   10   81 1    
    23   11   12 ar   
    24   11   71 1    
    25   12   13 ar   
    26   12   82 1    
    27   13   14 ar   
    28   13   15 1    
    29   14   83 1    
    30   15   16 1    
    31   15   84 1    
    32   15   85 1    
    33   16   17 1    
    34   17   18 1    
    35   17   86 1    
    36   17   87 1    
    37   18   19 1    
    38   18   37 1    
    39   18   88 1    
    40   19   20 am   BACKBONE|DICT|INTERRES
    41   19   89 1    
    42   20   21 2    
    43   20   22 1    
    44   22   23 1    
    45   22   24 1    
    46   22   90 1    
    47   23   91 1    
    48   23   92 1    
    49   23   93 1    
    50   24   25 am   BACKBONE|DICT|INTERRES
    51   24   94 1    
    52   25   26 2    
    53   25   27 1    
    54   27   28 1    
    55   27   29 1    
    56   27   95 1    
    57   28   96 1    
    58   28   97 1    
    59   28   98 1    
    60   29   30 am   BACKBONE|DICT|INTERRES
    61   29   99 1    
    62   30   31 2    
    63   30   32 1    
    64   32   33 1    
    65   32   34 1    
    66   32  100 1    
    67   33  101 1    
    68   33  102 1    
    69   33  103 1    
    70   34   35 am   BACKBONE|DICT|INTERRES
    71   34  104 1    
    72   35   36 2    
    73   37   38 2    
    74   37   39 am   BACKBONE|DICT|INTERRES
    75   39   40 1    
    76   39  105 1    
    77   40   41 1    
    78   40   42 1    
    79   40  106 1    
    80   41  107 1    
    81   41  108 1    
    82   41  109 1    
    83   42   43 2    
    84   42   44 am   BACKBONE|DICT|INTERRES
    85   44   45 1    
    86   44  110 1    
    87   45   46 1    
    88   45   47 1    
    89   45  111 1    
    90   46  112 1    
    91   46  113 1    
    92   46  114 1    
    93   47   48 2    
    94   47   49 am   BACKBONE|DICT|INTERRES
    95   49   50 1    
    96   49  115 1    
    97   50   51 1    
    98   50   52 1    
    99   50  116 1    
   100   51  117 1    
   101   51  118 1    
   102   51  119 1    
   103   52   53 2    
   104   52   54 am   BACKBONE|DICT|INTERRES
   105   54   55 1    
   106   54  120 1    
   107   55   56 1    
   108   55   57 1    
   109   55  121 1    
   110   56  122 1    
   111   56  123 1    
   112   56  124 1    
   113   57   58 2    
   114   57   59 am   BACKBONE|DICT|INTERRES
   115   59   60 1    
   116   59  125 1    
   117   60   61 1    
   118   60   62 1    
   119   60  126 1    
   120   61  127 1    
   121   61  128 1    
   122   61  129 1    
   123   62   63 2    
   124   62   64 am   BACKBONE|DICT|INTERRES
   125   64   65 1    
   126   64  130 1    
   127   65   66 1    
   128   65   69 1    
   129   65  131 1    
   130   66   67 am   BACKBONE|DICT|INTERRES
   131   66   68 2    
   132   67  132 1    
   133   67  133 1    
   134   69   70 1    
   135   69  134 1    
   136   69  135 1    
   137   70   71 1    
   138   71  136 1    
   139   71  137 1    
@<TRIPOS>SUBSTRUCTURE
     1 UNK         1 GROUP             0       ****    0 ROOT    
