@<TRIPOS>MOLECULE
3R136
137   139    1
SMALL
USER_CHARGES


@<TRIPOS>ATOM
      1 CA         33.8291   23.9485   -1.1818 C.3       0 UNK        -0.1979 
      2 C          32.5386   24.4816   -0.5775 C.2       0 UNK         0.4864 
      3 O          32.4599   25.6668   -0.2558 O.2       0 UNK        -0.5359 
      4 N          31.5276   23.6146   -0.4266 N.am      1 UNK        -0.4318 
      5 CA         30.2250   23.9328    0.1746 C.3       1 UNK         0.0824 
      6 C6         29.3988   22.6601    0.4819 C.3       12 UNK        -0.0944 
      7 S7         30.2651   21.5028    1.5908 S.3       12 UNK        -0.2672 
      8 C8         29.3200   21.7038    3.1403 C.3       12 UNK         0.0333 
      9 C9         29.5452   23.0337    3.8596 C.ar      12 UNK        -0.0807 
     10 C10        30.8062   23.6422    3.8980 C.ar      12 UNK        -0.0894 
     11 C11        31.0097   24.8209    4.6217 C.ar      12 UNK        -0.0804 
     12 C12        29.9448   25.3841    5.3284 C.ar      12 UNK        -0.0824 
     13 C13        28.6790   24.7954    5.2941 C.ar      12 UNK        -0.0762 
     14 C14        28.4840   23.6243    4.5552 C.ar      12 UNK        -0.0782 
     15 C15        27.5387   25.4164    6.0866 C.3       12 UNK         0.0230 
     16 S16        26.8978   26.9156    5.2790 S.3       12 UNK        -0.2608 
     17 C17        25.8551   26.2100    3.9572 C.3       12 UNK        -0.0989 
     18 CA         26.5537   26.1651    2.5745 C.3       5 UNK         0.0716 
     19 N          25.7358   25.5025    1.5676 N.am      5 UNK        -0.4135 
     20 C          25.5937   24.1837    1.4202 C.2       4 UNK         0.5031 
     21 O          26.0753   23.3568    2.1947 O.2       4 UNK        -0.5229 
     22 CA         24.7912   23.6771    0.2059 C.3       4 UNK         0.0329 
     23 CB         23.2936   23.5498    0.5471 C.3       4 UNK        -0.2001 
     24 N          25.0013   24.4268   -1.0431 N.am      4 UNK        -0.4303 
     25 C          24.6496   25.6825   -1.3509 C.2       3 UNK         0.5044 
     26 O          24.0889   26.4490   -0.5661 O.2       3 UNK        -0.5152 
     27 CA         25.0366   26.1690   -2.7614 C.3       3 UNK         0.0319 
     28 CB         24.3429   27.4909   -3.1399 C.3       3 UNK        -0.2001 
     29 N          26.4848   26.3468   -2.8784 N.am      3 UNK        -0.4354 
     30 C          27.3817   25.3596   -3.0009 C.2       2 UNK         0.4964 
     31 O          27.0703   24.1707   -3.1057 O.2       2 UNK        -0.5047 
     32 CA         28.8757   25.7441   -2.9860 C.3       2 UNK         0.0288 
     33 CB         29.1438   27.2552   -2.7874 C.3       2 UNK        -0.2113 
     34 N          29.6148   24.9544   -1.9931 N.am      2 UNK        -0.4145 
     35 C          29.3747   24.9009   -0.6722 C.2       1 UNK         0.5006 
     36 O          28.5054   25.5627   -0.1084 O.2       1 UNK        -0.5103 
     37 C          26.8886   27.5584    2.0222 C.2       5 UNK         0.5055 
     38 O          25.9731   28.3499    1.7846 O.2       5 UNK        -0.5220 
     39 N          28.1838   27.8262    1.8126 N.am      6 UNK        -0.4450 
     40 CA         28.6914   29.0974    1.2951 C.3       6 UNK         0.0367 
     41 CB         30.1389   28.9134    0.8090 C.3       6 UNK        -0.1929 
     42 C          28.6054   30.2248    2.3352 C.2       6 UNK         0.5070 
     43 O          28.2863   31.3563    1.9710 O.2       6 UNK        -0.5237 
     44 N          28.8906   29.8839    3.6032 N.am      7 UNK        -0.4739 
     45 CA         28.8456   30.7435    4.7964 C.3       7 UNK         0.0276 
     46 CB         27.3799   31.0608    5.1602 C.3       7 UNK        -0.1927 
     47 C          29.7193   32.0156    4.7074 C.2       7 UNK         0.5013 
     48 O          29.4052   33.0202    5.3493 O.2       7 UNK        -0.5193 
     49 N          30.7965   31.9569    3.9169 N.am      8 UNK        -0.4253 
     50 CA         31.7316   33.0452    3.6563 C.3       8 UNK         0.0242 
     51 CB         31.1581   33.9734    2.5689 C.3       8 UNK        -0.2000 
     52 C          33.0727   32.4466    3.2206 C.2       8 UNK         0.4948 
     53 O          33.1305   31.2610    2.8769 O.2       8 UNK        -0.5275 
     54 N          34.1236   33.2797    3.2441 N.am      9 UNK        -0.4246 
     55 CA         35.5179   32.9417    2.9329 C.3       9 UNK         0.0261 
     56 CB         35.6866   32.6596    1.4213 C.3       9 UNK        -0.1959 
     57 C          36.0214   31.8150    3.8547 C.2       9 UNK         0.5033 
     58 O          36.0179   31.9994    5.0738 O.2       9 UNK        -0.5390 
     59 N          36.3874   30.6606    3.2811 N.am      10 UNK        -0.4215 
     60 CA         36.7790   29.4460    4.0044 C.3       10 UNK         0.0240 
     61 CB         37.2555   28.3891    2.9946 C.3       10 UNK        -0.1982 
     62 C          35.6698   28.8656    4.9044 C.2       10 UNK         0.4970 
     63 O          35.9919   28.1825    5.8774 O.2       10 UNK        -0.4916 
     64 N          34.4035   29.1549    4.5788 N.am      11 UNK        -0.4279 
     65 CA         33.2217   28.7906    5.3712 C.3       11 UNK         0.1003 
     66 C          32.7485   29.9287    6.3229 C.2       11 UNK         0.5709 
     67 N          33.4726   31.0336    6.4691 N.am      11 UNK        -0.7358 
     68 O          31.7041   29.8033    6.9568 O.2       11 UNK        -0.4999 
     69 C69        32.0710   28.2672    4.4687 C.3       12 UNK        -0.0954 
     70 S70        32.5574   26.8181    3.4696 S.3       12 UNK        -0.2268 
     71 C71        32.3896   25.4589    4.6693 C.3       12 UNK         0.0203 
     72 H72        34.0633   24.4857   -2.1004 H         1 UNK         0.0888 
     73 H73        34.6545   24.0894   -0.4844 H         1 UNK         0.0888 
     74 H74        33.7619   22.8864   -1.4170 H         1 UNK         0.0888 
     75 H75        31.6591   22.6473   -0.6871 H         1 UNK         0.3017 
     76 H76        30.4214   24.4444    1.1195 H         1 UNK         0.0873 
     77 H77        29.1582   22.1269   -0.4399 H         1 UNK         0.0745 
     78 H78        28.4409   22.9268    0.9321 H         1 UNK         0.0745 
     79 H79        29.6049   20.9000    3.8202 H         1 UNK         0.0705 
     80 H80        28.2601   21.5592    2.9239 H         1 UNK         0.0705 
     81 H81        31.6385   23.1913    3.3754 H         1 UNK         0.1334 
     82 H82        30.0964   26.2784    5.9154 H         1 UNK         0.1417 
     83 H83        27.5063   23.1611    4.5355 H         1 UNK         0.1562 
     84 H84        26.7308   24.7001    6.2438 H         1 UNK         0.0748 
     85 H85        27.8996   25.6843    7.0807 H         1 UNK         0.0748 
     86 H86        24.9356   26.7956    3.8983 H         1 UNK         0.0940 
     87 H87        25.5437   25.2067    4.2504 H         1 UNK         0.0940 
     88 H88        27.4839   25.6006    2.6705 H         1 UNK         0.0703 
     89 H89        25.2815   26.1152    0.8941 H         1 UNK         0.3081 
     90 H90        25.1609   22.6717   -0.0021 H         1 UNK         0.0719 
     91 H91        23.1473   22.9011    1.4118 H         1 UNK         0.0809 
     92 H92        22.8449   24.5138    0.7887 H         1 UNK         0.0809 
     93 H93        22.7333   23.1164   -0.2812 H         1 UNK         0.0809 
     94 H94        25.5523   23.9419   -1.7451 H         1 UNK         0.2990 
     95 H95        24.7133   25.4077   -3.4747 H         1 UNK         0.0690 
     96 H96        24.5774   27.7828   -4.1638 H         1 UNK         0.0788 
     97 H97        24.6396   28.3085   -2.4814 H         1 UNK         0.0788 
     98 H98        23.2584   27.3950   -3.0720 H         1 UNK         0.0788 
     99 H99        26.8320   27.2873   -2.7589 H         1 UNK         0.2993 
    100 H100       29.2702   25.4620   -3.9634 H         1 UNK         0.0949 
    101 H101       28.7193   27.8436   -3.6018 H         1 UNK         0.0767 
    102 H102       28.7273   27.6294   -1.8514 H         1 UNK         0.0767 
    103 H103       30.2143   27.4616   -2.7729 H         1 UNK         0.0767 
    104 H104       30.3313   24.3454   -2.3611 H         1 UNK         0.3013 
    105 H105       28.8593   27.0898    1.9597 H         1 UNK         0.3121 
    106 H106       28.0795   29.3851    0.4372 H         1 UNK         0.0774 
    107 H107       30.5318   29.8421    0.3928 H         1 UNK         0.0815 
    108 H108       30.8058   28.6117    1.6161 H         1 UNK         0.0815 
    109 H109       30.2045   28.1549    0.0289 H         1 UNK         0.0815 
    110 H110       29.1196   28.9154    3.7761 H         1 UNK         0.2987 
    111 H111       29.2651   30.1533    5.6127 H         1 UNK         0.0949 
    112 H112       27.3142   31.5780    6.1182 H         1 UNK         0.0806 
    113 H113       26.7866   30.1502    5.2452 H         1 UNK         0.0806 
    114 H114       26.9091   31.6987    4.4114 H         1 UNK         0.0806 
    115 H115       31.0266   31.0924    3.4447 H         1 UNK         0.3010 
    116 H116       31.8928   33.6075    4.5787 H         1 UNK         0.0829 
    117 H117       30.9807   33.4349    1.6369 H         1 UNK         0.0813 
    118 H118       30.2115   34.4143    2.8821 H         1 UNK         0.0813 
    119 H119       31.8385   34.7966    2.3481 H         1 UNK         0.0813 
    120 H120       33.9731   34.2243    3.5706 H         1 UNK         0.3038 
    121 H121       36.1162   33.8216    3.1741 H         1 UNK         0.0769 
    122 H122       36.7309   32.4729    1.1671 H         1 UNK         0.0811 
    123 H123       35.3681   33.5185    0.8303 H         1 UNK         0.0811 
    124 H124       35.1006   31.8025    1.0876 H         1 UNK         0.0811 
    125 H125       36.3307   30.5921    2.2752 H         1 UNK         0.3204 
    126 H126       37.6188   29.7054    4.6525 H         1 UNK         0.0748 
    127 H127       37.5862   27.4831    3.5047 H         1 UNK         0.0771 
    128 H128       36.4599   28.1020    2.3055 H         1 UNK         0.0771 
    129 H129       38.0981   28.7520    2.4055 H         1 UNK         0.0771 
    130 H130       34.2168   29.7581    3.7849 H         1 UNK         0.2980 
    131 H131       33.4911   27.9749    6.0430 H         1 UNK         0.0545 
    132 H132       34.3475   31.1625    5.9748 H         1 UNK         0.3459 
    133 H133       33.1493   31.7450    7.1043 H         1 UNK         0.3459 
    134 H134       31.1930   28.0105    5.0595 H         1 UNK         0.0616 
    135 H135       31.7522   29.0523    3.7834 H         1 UNK         0.0616 
    136 H136       32.6046   25.8131    5.6779 H         1 UNK         0.0634 
    137 H137       33.1525   24.7115    4.4466 H         1 UNK         0.0634 
@<TRIPOS>BOND
     1    1    2 1    
     2    1   72 1    
     3    1   73 1    
     4    1   74 1    
     5    2    3 2    
     6    2    4 am   BACKBONE|DICT|INTERRES
     7    4    5 1    
     8    4   75 1    
     9    5    6 1    
    10    5   35 1    
    11    5   76 1    
    12    6    7 1    
    13    6   77 1    
    14    6   78 1    
    15    7    8 1    
    16    8    9 1    
    17    8   79 1    
    18    8   80 1    
    19    9   10 ar   
    20    9   14 ar   
    21   10   11 ar   
    22   10   81 1    
    23   11   12 ar   
    24   11   71 1    
    25   12   13 ar   
    26   12   82 1    
    27   13   14 ar   
    28   13   15 1    
    29   14   83 1    
    30   15   16 1    
    31   15   84 1    
    32   15   85 1    
    33   16   17 1    
    34   17   18 1    
    35   17   86 1    
    36   17   87 1    
    37   18   19 1    
    38   18   37 1    
    39   18   88 1    
    40   19   20 am   BACKBONE|DICT|INTERRES
    41   19   89 1    
    42   20   21 2    
    43   20   22 1    
    44   22   23 1    
    45   22   24 1    
    46   22   90 1    
    47   23   91 1    
    48   23   92 1    
    49   23   93 1    
    50   24   25 am   BACKBONE|DICT|INTERRES
    51   24   94 1    
    52   25   26 2    
    53   25   27 1    
    54   27   28 1    
    55   27   29 1    
    56   27   95 1    
    57   28   96 1    
    58   28   97 1    
    59   28   98 1    
    60   29   30 am   BACKBONE|DICT|INTERRES
    61   29   99 1    
    62   30   31 2    
    63   30   32 1    
    64   32   33 1    
    65   32   34 1    
    66   32  100 1    
    67   33  101 1    
    68   33  102 1    
    69   33  103 1    
    70   34   35 am   BACKBONE|DICT|INTERRES
    71   34  104 1    
    72   35   36 2    
    73   37   38 2    
    74   37   39 am   BACKBONE|DICT|INTERRES
    75   39   40 1    
    76   39  105 1    
    77   40   41 1    
    78   40   42 1    
    79   40  106 1    
    80   41  107 1    
    81   41  108 1    
    82   41  109 1    
    83   42   43 2    
    84   42   44 am   BACKBONE|DICT|INTERRES
    85   44   45 1    
    86   44  110 1    
    87   45   46 1    
    88   45   47 1    
    89   45  111 1    
    90   46  112 1    
    91   46  113 1    
    92   46  114 1    
    93   47   48 2    
    94   47   49 am   BACKBONE|DICT|INTERRES
    95   49   50 1    
    96   49  115 1    
    97   50   51 1    
    98   50   52 1    
    99   50  116 1    
   100   51  117 1    
   101   51  118 1    
   102   51  119 1    
   103   52   53 2    
   104   52   54 am   BACKBONE|DICT|INTERRES
   105   54   55 1    
   106   54  120 1    
   107   55   56 1    
   108   55   57 1    
   109   55  121 1    
   110   56  122 1    
   111   56  123 1    
   112   56  124 1    
   113   57   58 2    
   114   57   59 am   BACKBONE|DICT|INTERRES
   115   59   60 1    
   116   59  125 1    
   117   60   61 1    
   118   60   62 1    
   119   60  126 1    
   120   61  127 1    
   121   61  128 1    
   122   61  129 1    
   123   62   63 2    
   124   62   64 am   BACKBONE|DICT|INTERRES
   125   64   65 1    
   126   64  130 1    
   127   65   66 1    
   128   65   69 1    
   129   65  131 1    
   130   66   67 am   BACKBONE|DICT|INTERRES
   131   66   68 2    
   132   67  132 1    
   133   67  133 1    
   134   69   70 1    
   135   69  134 1    
   136   69  135 1    
   137   70   71 1    
   138   71  136 1    
   139   71  137 1    
@<TRIPOS>SUBSTRUCTURE
     1 UNK         1 GROUP             0       ****    0 ROOT    
