@<TRIPOS>MOLECULE
3R136
137   139    1
SMALL
USER_CHARGES


@<TRIPOS>ATOM
      1 CA         28.8790   19.3090    1.7761 C.3       0 UNK        -0.1979 
      2 C          28.9245   20.6894    2.4251 C.2       0 UNK         0.4864 
      3 O          28.9745   20.7734    3.6506 O.2       0 UNK        -0.5359 
      4 N          28.9038   21.7926    1.6639 N.am      1 UNK        -0.4318 
      5 CA         28.8244   21.8703    0.1979 C.3       1 UNK         0.0824 
      6 C6         30.1621   22.2893   -0.4758 C.3       12 UNK        -0.0944 
      7 S7         31.6057   21.3100    0.0725 S.3       12 UNK        -0.2672 
      8 C8         32.9282   22.5688    0.2063 C.3       12 UNK         0.0333 
      9 C9         32.5774   23.7984    1.0454 C.ar      12 UNK        -0.0807 
     10 C10        33.0594   25.0513    0.6532 C.ar      12 UNK        -0.0894 
     11 C11        32.7387   26.2004    1.3813 C.ar      12 UNK        -0.0804 
     12 C12        31.9097   26.0964    2.5010 C.ar      12 UNK        -0.0824 
     13 C13        31.4189   24.8529    2.9063 C.ar      12 UNK        -0.0762 
     14 C14        31.7798   23.7059    2.1924 C.ar      12 UNK        -0.0782 
     15 C15        30.4826   24.7403    4.0995 C.3       12 UNK         0.0230 
     16 S16        28.7619   24.5322    3.5413 S.3       12 UNK        -0.2608 
     17 C17        27.9838   26.1154    4.0055 C.3       12 UNK        -0.0989 
     18 CA         28.4417   27.3345    3.1663 C.3       5 UNK         0.0716 
     19 N          28.4239   27.0765    1.7242 N.am      5 UNK        -0.4135 
     20 C          29.0800   27.8120    0.8146 C.2       4 UNK         0.5031 
     21 O          29.7635   28.7958    1.0930 O.2       4 UNK        -0.5229 
     22 CA         28.8986   27.4226   -0.6636 C.3       4 UNK         0.0329 
     23 CB         29.9231   26.3532   -1.0621 C.3       4 UNK        -0.2001 
     24 N          27.5464   26.9462   -0.9657 N.am      4 UNK        -0.4303 
     25 C          26.4412   27.6918   -0.8200 C.2       3 UNK         0.5044 
     26 O          26.4631   28.8741   -0.4791 O.2       3 UNK        -0.5152 
     27 CA         25.0792   27.0078   -1.0296 C.3       3 UNK         0.0319 
     28 CB         24.5489   27.2977   -2.4422 C.3       3 UNK        -0.2001 
     29 N          25.0686   25.5595   -0.7972 N.am      3 UNK        -0.4354 
     30 C          25.4348   24.9330    0.3310 C.2       2 UNK         0.4964 
     31 O          25.8962   25.5114    1.3164 O.2       2 UNK        -0.5047 
     32 CA         25.2686   23.4013    0.3709 C.3       2 UNK         0.0288 
     33 CB         24.5201   22.8103   -0.8473 C.3       2 UNK        -0.2113 
     34 N          26.5457   22.7058    0.5651 N.am      2 UNK        -0.4145 
     35 C          27.6469   22.7872   -0.2007 C.2       1 UNK         0.5006 
     36 O          27.7477   23.5366   -1.1753 O.2       1 UNK        -0.5103 
     37 C          27.6082   28.5766    3.5376 C.2       5 UNK         0.5055 
     38 O          27.9063   29.2208    4.5422 O.2       5 UNK        -0.5220 
     39 N          26.5822   28.8949    2.7343 N.am      6 UNK        -0.4450 
     40 CA         25.7976   30.1233    2.8631 C.3       6 UNK         0.0367 
     41 CB         24.4410   29.9554    2.1593 C.3       6 UNK        -0.1929 
     42 C          26.5637   31.3351    2.3079 C.2       6 UNK         0.5070 
     43 O          26.5087   32.4095    2.9063 O.2       6 UNK        -0.5237 
     44 N          27.2692   31.1390    1.1842 N.am      7 UNK        -0.4739 
     45 CA         28.1073   32.1483    0.5351 C.3       7 UNK         0.0276 
     46 CB         28.5217   31.6538   -0.8602 C.3       7 UNK        -0.1927 
     47 C          29.3425   32.5323    1.3673 C.2       7 UNK         0.5013 
     48 O          29.6360   33.7229    1.4866 O.2       7 UNK        -0.5193 
     49 N          30.0356   31.5339    1.9290 N.am      8 UNK        -0.4253 
     50 CA         31.2218   31.7148    2.7589 C.3       8 UNK         0.0242 
     51 CB         32.4860   31.6912    1.8778 C.3       8 UNK        -0.2000 
     52 C          31.2480   30.6273    3.8365 C.2       8 UNK         0.4948 
     53 O          31.7788   29.5433    3.5982 O.2       8 UNK        -0.5275 
     54 N          30.6831   30.9340    5.0125 N.am      9 UNK        -0.4246 
     55 CA         30.7101   30.0529    6.1869 C.3       9 UNK         0.0261 
     56 CB         29.7788   30.6082    7.2764 C.3       9 UNK        -0.1959 
     57 C          32.1335   29.8477    6.7347 C.2       9 UNK         0.5033 
     58 O          32.4876   28.7309    7.1145 O.2       9 UNK        -0.5390 
     59 N          32.9369   30.9193    6.7140 N.am      10 UNK        -0.4215 
     60 CA         34.3724   30.9048    6.9889 C.3       10 UNK         0.0240 
     61 CB         34.7521   32.1910    7.7475 C.3       10 UNK        -0.1982 
     62 C          35.1305   30.7494    5.6593 C.2       10 UNK         0.4970 
     63 O          35.8094   31.6805    5.2221 O.2       10 UNK        -0.4916 
     64 N          34.9478   29.5907    5.0154 N.am      11 UNK        -0.4279 
     65 CA         35.5547   29.2268    3.7280 C.3       11 UNK         0.1003 
     66 C          37.1079   29.1750    3.7864 C.2       11 UNK         0.5709 
     67 N          37.7890   29.6391    2.7474 N.am      11 UNK        -0.7358 
     68 O          37.6955   28.6882    4.7513 O.2       11 UNK        -0.4999 
     69 C69        34.9572   27.8946    3.2037 C.3       12 UNK        -0.0954 
     70 S70        35.0287   27.7636    1.3843 S.3       12 UNK        -0.2268 
     71 C71        33.2736   27.5564    0.9443 C.3       12 UNK         0.0203 
     72 H72        29.6690   19.1969    1.0345 H         1 UNK         0.0888 
     73 H73        29.0190   18.5298    2.5251 H         1 UNK         0.0888 
     74 H74        27.9157   19.1402    1.2958 H         1 UNK         0.0888 
     75 H75        28.9205   22.6904    2.1336 H         1 UNK         0.3017 
     76 H76        28.5554   20.8980   -0.2150 H         1 UNK         0.0873 
     77 H77        30.0854   22.1901   -1.5601 H         1 UNK         0.0745 
     78 H78        30.3563   23.3426   -0.2895 H         1 UNK         0.0745 
     79 H79        33.1991   22.8731   -0.8060 H         1 UNK         0.0705 
     80 H80        33.8143   22.0982    0.6336 H         1 UNK         0.0705 
     81 H81        33.6885   25.1376   -0.2223 H         1 UNK         0.1334 
     82 H82        31.6459   26.9883    3.0517 H         1 UNK         0.1417 
     83 H83        31.4084   22.7427    2.5133 H         1 UNK         0.1562 
     84 H84        30.5733   25.6114    4.7503 H         1 UNK         0.0748 
     85 H85        30.7643   23.8766    4.7038 H         1 UNK         0.0748 
     86 H86        28.1664   26.2944    5.0670 H         1 UNK         0.0940 
     87 H87        26.9051   25.9744    3.9085 H         1 UNK         0.0940 
     88 H88        29.4713   27.5624    3.4462 H         1 UNK         0.0703 
     89 H89        27.8314   26.3120    1.4202 H         1 UNK         0.3081 
     90 H90        29.0785   28.3119   -1.2708 H         1 UNK         0.0719 
     91 H91        30.9397   26.7344   -0.9642 H         1 UNK         0.0809 
     92 H92        29.7930   26.0318   -2.0955 H         1 UNK         0.0809 
     93 H93        29.8422   25.4774   -0.4206 H         1 UNK         0.0809 
     94 H94        27.4465   25.9738   -1.2291 H         1 UNK         0.2990 
     95 H95        24.3884   27.4514   -0.3097 H         1 UNK         0.0690 
     96 H96        23.5341   26.9210   -2.5717 H         1 UNK         0.0788 
     97 H97        25.1777   26.8448   -3.2099 H         1 UNK         0.0788 
     98 H98        24.5200   28.3712   -2.6359 H         1 UNK         0.0788 
     99 H99        24.7288   24.9877   -1.5570 H         1 UNK         0.2993 
    100 H100       24.6669   23.1944    1.2575 H         1 UNK         0.0949 
    101 H101       23.5334   23.2607   -0.9649 H         1 UNK         0.0767 
    102 H102       25.0684   22.9514   -1.7797 H         1 UNK         0.0767 
    103 H103       24.3627   21.7388   -0.7224 H         1 UNK         0.0767 
    104 H104       26.5898   22.1041    1.3757 H         1 UNK         0.3013 
    105 H105       26.4042   28.3186    1.9239 H         1 UNK         0.3121 
    106 H106       25.6048   30.3051    3.9229 H         1 UNK         0.0774 
    107 H107       23.8222   30.8429    2.2982 H         1 UNK         0.0815 
    108 H108       24.5511   29.8046    1.0855 H         1 UNK         0.0815 
    109 H109       23.8864   29.1081    2.5627 H         1 UNK         0.0815 
    110 H110       27.1922   30.2415    0.7145 H         1 UNK         0.2987 
    111 H111       27.5025   33.0489    0.4086 H         1 UNK         0.0949 
    112 H112       27.6510   31.4306   -1.4772 H         1 UNK         0.0806 
    113 H113       29.1066   32.4109   -1.3841 H         1 UNK         0.0806 
    114 H114       29.1315   30.7519   -0.8045 H         1 UNK         0.0806 
    115 H115       29.7645   30.5675    1.7501 H         1 UNK         0.3010 
    116 H116       31.1797   32.6822    3.2642 H         1 UNK         0.0829 
    117 H117       32.5005   32.5317    1.1840 H         1 UNK         0.0813 
    118 H118       33.3882   31.7556    2.4874 H         1 UNK         0.0813 
    119 H119       32.5512   30.7741    1.2916 H         1 UNK         0.0813 
    120 H120       30.2184   31.8245    5.1182 H         1 UNK         0.3038 
    121 H121       30.3314   29.0753    5.8803 H         1 UNK         0.0769 
    122 H122       30.0859   31.6002    7.6095 H         1 UNK         0.0811 
    123 H123       29.7724   29.9568    8.1514 H         1 UNK         0.0811 
    124 H124       28.7510   30.6756    6.9183 H         1 UNK         0.0811 
    125 H125       32.5609   31.7837    6.3520 H         1 UNK         0.3204 
    126 H126       34.6305   30.0534    7.6227 H         1 UNK         0.0748 
    127 H127       35.8200   32.2119    7.9690 H         1 UNK         0.0771 
    128 H128       34.5198   33.0881    7.1719 H         1 UNK         0.0771 
    129 H129       34.2236   32.2585    8.6987 H         1 UNK         0.0771 
    130 H130       34.3568   28.8920    5.4431 H         1 UNK         0.2980 
    131 H131       35.2692   30.0228    3.0371 H         1 UNK         0.0545 
    132 H132       37.3128   30.0122    1.9410 H         1 UNK         0.3459 
    133 H133       38.7960   29.6018    2.7635 H         1 UNK         0.3459 
    134 H134       35.4542   27.0288    3.6454 H         1 UNK         0.0616 
    135 H135       33.9132   27.8175    3.5072 H         1 UNK         0.0616 
    136 H136       32.6867   28.3647    1.3816 H         1 UNK         0.0634 
    137 H137       33.1688   27.6562   -0.1366 H         1 UNK         0.0634 
@<TRIPOS>BOND
     1    1    2 1    
     2    1   72 1    
     3    1   73 1    
     4    1   74 1    
     5    2    3 2    
     6    2    4 am   BACKBONE|DICT|INTERRES
     7    4    5 1    
     8    4   75 1    
     9    5    6 1    
    10    5   35 1    
    11    5   76 1    
    12    6    7 1    
    13    6   77 1    
    14    6   78 1    
    15    7    8 1    
    16    8    9 1    
    17    8   79 1    
    18    8   80 1    
    19    9   10 ar   
    20    9   14 ar   
    21   10   11 ar   
    22   10   81 1    
    23   11   12 ar   
    24   11   71 1    
    25   12   13 ar   
    26   12   82 1    
    27   13   14 ar   
    28   13   15 1    
    29   14   83 1    
    30   15   16 1    
    31   15   84 1    
    32   15   85 1    
    33   16   17 1    
    34   17   18 1    
    35   17   86 1    
    36   17   87 1    
    37   18   19 1    
    38   18   37 1    
    39   18   88 1    
    40   19   20 am   BACKBONE|DICT|INTERRES
    41   19   89 1    
    42   20   21 2    
    43   20   22 1    
    44   22   23 1    
    45   22   24 1    
    46   22   90 1    
    47   23   91 1    
    48   23   92 1    
    49   23   93 1    
    50   24   25 am   BACKBONE|DICT|INTERRES
    51   24   94 1    
    52   25   26 2    
    53   25   27 1    
    54   27   28 1    
    55   27   29 1    
    56   27   95 1    
    57   28   96 1    
    58   28   97 1    
    59   28   98 1    
    60   29   30 am   BACKBONE|DICT|INTERRES
    61   29   99 1    
    62   30   31 2    
    63   30   32 1    
    64   32   33 1    
    65   32   34 1    
    66   32  100 1    
    67   33  101 1    
    68   33  102 1    
    69   33  103 1    
    70   34   35 am   BACKBONE|DICT|INTERRES
    71   34  104 1    
    72   35   36 2    
    73   37   38 2    
    74   37   39 am   BACKBONE|DICT|INTERRES
    75   39   40 1    
    76   39  105 1    
    77   40   41 1    
    78   40   42 1    
    79   40  106 1    
    80   41  107 1    
    81   41  108 1    
    82   41  109 1    
    83   42   43 2    
    84   42   44 am   BACKBONE|DICT|INTERRES
    85   44   45 1    
    86   44  110 1    
    87   45   46 1    
    88   45   47 1    
    89   45  111 1    
    90   46  112 1    
    91   46  113 1    
    92   46  114 1    
    93   47   48 2    
    94   47   49 am   BACKBONE|DICT|INTERRES
    95   49   50 1    
    96   49  115 1    
    97   50   51 1    
    98   50   52 1    
    99   50  116 1    
   100   51  117 1    
   101   51  118 1    
   102   51  119 1    
   103   52   53 2    
   104   52   54 am   BACKBONE|DICT|INTERRES
   105   54   55 1    
   106   54  120 1    
   107   55   56 1    
   108   55   57 1    
   109   55  121 1    
   110   56  122 1    
   111   56  123 1    
   112   56  124 1    
   113   57   58 2    
   114   57   59 am   BACKBONE|DICT|INTERRES
   115   59   60 1    
   116   59  125 1    
   117   60   61 1    
   118   60   62 1    
   119   60  126 1    
   120   61  127 1    
   121   61  128 1    
   122   61  129 1    
   123   62   63 2    
   124   62   64 am   BACKBONE|DICT|INTERRES
   125   64   65 1    
   126   64  130 1    
   127   65   66 1    
   128   65   69 1    
   129   65  131 1    
   130   66   67 am   BACKBONE|DICT|INTERRES
   131   66   68 2    
   132   67  132 1    
   133   67  133 1    
   134   69   70 1    
   135   69  134 1    
   136   69  135 1    
   137   70   71 1    
   138   71  136 1    
   139   71  137 1    
@<TRIPOS>SUBSTRUCTURE
     1 UNK         1 GROUP             0       ****    0 ROOT    
