@<TRIPOS>MOLECULE
3R136
137   139    1
SMALL
USER_CHARGES


@<TRIPOS>ATOM
      1 CA         32.6897   23.8736   -1.9838 C.3       0 UNK        -0.1979 
      2 C          31.4997   24.6835   -1.4922 C.2       0 UNK         0.4864 
      3 O          31.3942   25.8679   -1.8085 O.2       0 UNK        -0.5359 
      4 N          30.6023   24.0534   -0.7211 N.am      1 UNK        -0.4318 
      5 CA         29.4215   24.6889   -0.1189 C.3       1 UNK         0.0824 
      6 C6         28.8483   23.8702    1.0637 C.3       12 UNK        -0.0944 
      7 S7         30.1078   23.4535    2.3139 S.3       12 UNK        -0.2672 
      8 C8         29.0917   23.2313    3.8087 C.3       12 UNK         0.0333 
      9 C9         29.1274   24.4507    4.7204 C.ar      12 UNK        -0.0807 
     10 C10        30.3199   24.8010    5.3614 C.ar      12 UNK        -0.0894 
     11 C11        30.3588   25.8712    6.2579 C.ar      12 UNK        -0.0804 
     12 C12        29.1929   26.6024    6.5040 C.ar      12 UNK        -0.0824 
     13 C13        27.9871   26.2596    5.8814 C.ar      12 UNK        -0.0762 
     14 C14        27.9640   25.1825    4.9843 C.ar      12 UNK        -0.0782 
     15 C15        26.7128   27.0099    6.2713 C.3       12 UNK         0.0230 
     16 S16        25.5318   27.2895    4.9089 S.3       12 UNK        -0.2608 
     17 C17        26.4565   28.4470    3.8478 C.3       12 UNK        -0.0989 
     18 CA         26.8763   27.8201    2.4901 C.3       5 UNK         0.0716 
     19 N          25.7347   27.4646    1.6462 N.am      5 UNK        -0.4135 
     20 C          25.2411   26.2311    1.4923 C.2       4 UNK         0.5031 
     21 O          25.6563   25.2430    2.1013 O.2       4 UNK        -0.5229 
     22 CA         24.1146   26.0441    0.4655 C.3       4 UNK         0.0329 
     23 CB         23.7953   27.2935   -0.3836 C.3       4 UNK        -0.2001 
     24 N          24.5183   24.9533   -0.4117 N.am      4 UNK        -0.4303 
     25 C          23.7286   23.9876   -0.8931 C.2       3 UNK         0.5044 
     26 O          22.5159   23.9303   -0.6802 O.2       3 UNK        -0.5152 
     27 CA         24.4101   22.8842   -1.7341 C.3       3 UNK         0.0319 
     28 CB         23.4866   22.3236   -2.8373 C.3       3 UNK        -0.2001 
     29 N          25.7184   23.2729   -2.2846 N.am      3 UNK        -0.4354 
     30 C          25.9708   24.2569   -3.1632 C.2       2 UNK         0.4964 
     31 O          25.0977   24.9451   -3.6940 O.2       2 UNK        -0.5047 
     32 CA         27.4571   24.5260   -3.4758 C.3       2 UNK         0.0288 
     33 CB         27.6838   25.9109   -4.1185 C.3       2 UNK        -0.2113 
     34 N          28.3480   24.3487   -2.3180 N.am      2 UNK        -0.4145 
     35 C          28.3104   25.0034   -1.1443 C.2       1 UNK         0.5006 
     36 O          27.4462   25.8298   -0.8441 O.2       1 UNK        -0.5103 
     37 C          27.8185   28.7374    1.6897 C.2       5 UNK         0.5055 
     38 O          28.3029   29.7336    2.2267 O.2       5 UNK        -0.5220 
     39 N          28.0996   28.3968    0.4208 N.am      6 UNK        -0.4450 
     40 CA         29.0314   29.1540   -0.4330 C.3       6 UNK         0.0367 
     41 CB         28.9319   28.6601   -1.8836 C.3       6 UNK        -0.1929 
     42 C          30.4937   29.1181    0.0594 C.2       6 UNK         0.5070 
     43 O          31.2892   29.9722   -0.3313 O.2       6 UNK        -0.5237 
     44 N          30.8067   28.1599    0.9414 N.am      7 UNK        -0.4739 
     45 CA         32.0826   28.0208    1.6380 C.3       7 UNK         0.0276 
     46 CB         32.1868   26.5908    2.1942 C.3       7 UNK        -0.1927 
     47 C          32.2886   29.0448    2.7692 C.2       7 UNK         0.5013 
     48 O          33.4004   29.1095    3.2921 O.2       7 UNK        -0.5193 
     49 N          31.2547   29.8218    3.1406 N.am      8 UNK        -0.4253 
     50 CA         31.2484   30.7568    4.2773 C.3       8 UNK         0.0242 
     51 CB         29.9109   31.5106    4.3300 C.3       8 UNK        -0.2000 
     52 C          32.4223   31.7524    4.3307 C.2       8 UNK         0.4948 
     53 O          32.8686   32.0960    5.4259 O.2       8 UNK        -0.5275 
     54 N          32.9307   32.1581    3.1584 N.am      9 UNK        -0.4246 
     55 CA         34.1260   32.9927    3.0084 C.3       9 UNK         0.0261 
     56 CB         34.2636   33.4167    1.5372 C.3       9 UNK        -0.1959 
     57 C          35.4237   32.3186    3.4982 C.2       9 UNK         0.5033 
     58 O          36.3406   33.0280    3.9150 O.2       9 UNK        -0.5390 
     59 N          35.4830   30.9804    3.4460 N.am      10 UNK        -0.4215 
     60 CA         36.5759   30.1727    3.9867 C.3       10 UNK         0.0240 
     61 CB         36.7939   28.9345    3.1007 C.3       10 UNK        -0.1982 
     62 C          36.2942   29.7581    5.4392 C.2       10 UNK         0.4970 
     63 O          37.2340   29.7155    6.2342 O.2       10 UNK        -0.4916 
     64 N          35.0251   29.4644    5.7641 N.am      11 UNK        -0.4279 
     65 CA         34.5732   29.1250    7.1251 C.3       11 UNK         0.1003 
     66 C          34.7712   30.2784    8.1482 C.2       11 UNK         0.5709 
     67 N          34.4900   31.5231    7.7810 N.am      11 UNK        -0.7358 
     68 O          35.1830   30.0395    9.2810 O.2       11 UNK        -0.4999 
     69 C69        33.1029   28.6308    7.1716 C.3       12 UNK        -0.0954 
     70 S70        32.7466   27.2573    6.0223 S.3       12 UNK        -0.2268 
     71 C71        31.6443   26.1952    7.0061 C.3       12 UNK         0.0203 
     72 H72        32.6566   22.8433   -1.6299 H         1 UNK         0.0888 
     73 H73        33.6181   24.3230   -1.6325 H         1 UNK         0.0888 
     74 H74        32.7089   23.8584   -3.0732 H         1 UNK         0.0888 
     75 H75        30.7551   23.0876   -0.4653 H         1 UNK         0.3017 
     76 H76        29.7451   25.6506    0.2802 H         1 UNK         0.0873 
     77 H77        28.3956   22.9404    0.7138 H         1 UNK         0.0745 
     78 H78        28.0556   24.4354    1.5555 H         1 UNK         0.0745 
     79 H79        28.0677   22.9754    3.5310 H         1 UNK         0.0705 
     80 H80        29.4759   22.3729    4.3614 H         1 UNK         0.0705 
     81 H81        31.2165   24.2251    5.1754 H         1 UNK         0.1334 
     82 H82        29.2187   27.4187    7.2132 H         1 UNK         0.1417 
     83 H83        27.0336   24.8958    4.5120 H         1 UNK         0.1562 
     84 H84        26.9570   27.9753    6.7178 H         1 UNK         0.0748 
     85 H85        26.2067   26.4356    7.0482 H         1 UNK         0.0748 
     86 H86        27.3333   28.7913    4.4000 H         1 UNK         0.0940 
     87 H87        25.8396   29.3325    3.6845 H         1 UNK         0.0940 
     88 H88        27.4666   26.9260    2.7010 H         1 UNK         0.0703 
     89 H89        25.3444   28.2144    1.0933 H         1 UNK         0.3081 
     90 H90        23.2222   25.7606    1.0273 H         1 UNK         0.0719 
     91 H91        24.6615   27.6290   -0.9563 H         1 UNK         0.0809 
     92 H92        22.9976   27.0830   -1.0965 H         1 UNK         0.0809 
     93 H93        23.4516   28.1226    0.2362 H         1 UNK         0.0809 
     94 H94        25.5106   24.9215   -0.6165 H         1 UNK         0.2990 
     95 H95        24.6126   22.0698   -1.0369 H         1 UNK         0.0690 
     96 H96        23.9823   21.5401   -3.4103 H         1 UNK         0.0788 
     97 H97        23.1686   23.0997   -3.5339 H         1 UNK         0.0788 
     98 H98        22.5845   21.8861   -2.4080 H         1 UNK         0.0788 
     99 H99        26.5106   22.7664   -1.9143 H         1 UNK         0.2993 
    100 H100       27.7508   23.7721   -4.2079 H         1 UNK         0.0949 
    101 H101       27.1699   25.9863   -5.0776 H         1 UNK         0.0767 
    102 H102       27.3045   26.7125   -3.4847 H         1 UNK         0.0767 
    103 H103       28.7420   26.0982   -4.3018 H         1 UNK         0.0767 
    104 H104       29.0984   23.6842   -2.4467 H         1 UNK         0.3013 
    105 H105       27.6903   27.5553    0.0208 H         1 UNK         0.3121 
    106 H106       28.7163   30.1997   -0.4155 H         1 UNK         0.0774 
    107 H107       27.9067   28.7082   -2.2501 H         1 UNK         0.0815 
    108 H108       29.2840   27.6344   -1.9870 H         1 UNK         0.0815 
    109 H109       29.5418   29.2760   -2.5457 H         1 UNK         0.0815 
    110 H110       30.0784   27.5178    1.2108 H         1 UNK         0.2987 
    111 H111       32.8885   28.1700    0.9161 H         1 UNK         0.0949 
    112 H112       31.3978   26.3792    2.9175 H         1 UNK         0.0806 
    113 H113       32.1244   25.8476    1.3995 H         1 UNK         0.0806 
    114 H114       33.1393   26.4364    2.7033 H         1 UNK         0.0806 
    115 H115       30.3709   29.7118    2.6556 H         1 UNK         0.3010 
    116 H116       31.3118   30.1435    5.1747 H         1 UNK         0.0829 
    117 H117       29.0809   30.8291    4.5155 H         1 UNK         0.0813 
    118 H118       29.9033   32.2461    5.1358 H         1 UNK         0.0813 
    119 H119       29.7094   32.0414    3.3988 H         1 UNK         0.0813 
    120 H120       32.4994   31.8186    2.3104 H         1 UNK         0.3038 
    121 H121       33.9794   33.8914    3.6115 H         1 UNK         0.0769 
    122 H122       34.3866   32.5560    0.8784 H         1 UNK         0.0811 
    123 H123       35.1325   34.0614    1.3967 H         1 UNK         0.0811 
    124 H124       33.3903   33.9761    1.2012 H         1 UNK         0.0811 
    125 H125       34.6598   30.4617    3.1482 H         1 UNK         0.3204 
    126 H126       37.4997   30.7553    3.9777 H         1 UNK         0.0748 
    127 H127       35.9203   28.2817    3.0872 H         1 UNK         0.0771 
    128 H128       37.0155   29.2183    2.0718 H         1 UNK         0.0771 
    129 H129       37.6356   28.3422    3.4621 H         1 UNK         0.0771 
    130 H130       34.3192   29.4492    5.0364 H         1 UNK         0.2980 
    131 H131       35.2007   28.2968    7.4603 H         1 UNK         0.0545 
    132 H132       34.6205   32.2736    8.4396 H         1 UNK         0.3459 
    133 H133       34.0727   31.7131    6.8738 H         1 UNK         0.3459 
    134 H134       32.8693   28.3118    8.1884 H         1 UNK         0.0616 
    135 H135       32.4170   29.4485    6.9537 H         1 UNK         0.0616 
    136 H136       31.4015   26.6622    7.9610 H         1 UNK         0.0634 
    137 H137       32.1741   25.2733    7.2503 H         1 UNK         0.0634 
@<TRIPOS>BOND
     1    1    2 1    
     2    1   72 1    
     3    1   73 1    
     4    1   74 1    
     5    2    3 2    
     6    2    4 am   BACKBONE|DICT|INTERRES
     7    4    5 1    
     8    4   75 1    
     9    5    6 1    
    10    5   35 1    
    11    5   76 1    
    12    6    7 1    
    13    6   77 1    
    14    6   78 1    
    15    7    8 1    
    16    8    9 1    
    17    8   79 1    
    18    8   80 1    
    19    9   10 ar   
    20    9   14 ar   
    21   10   11 ar   
    22   10   81 1    
    23   11   12 ar   
    24   11   71 1    
    25   12   13 ar   
    26   12   82 1    
    27   13   14 ar   
    28   13   15 1    
    29   14   83 1    
    30   15   16 1    
    31   15   84 1    
    32   15   85 1    
    33   16   17 1    
    34   17   18 1    
    35   17   86 1    
    36   17   87 1    
    37   18   19 1    
    38   18   37 1    
    39   18   88 1    
    40   19   20 am   BACKBONE|DICT|INTERRES
    41   19   89 1    
    42   20   21 2    
    43   20   22 1    
    44   22   23 1    
    45   22   24 1    
    46   22   90 1    
    47   23   91 1    
    48   23   92 1    
    49   23   93 1    
    50   24   25 am   BACKBONE|DICT|INTERRES
    51   24   94 1    
    52   25   26 2    
    53   25   27 1    
    54   27   28 1    
    55   27   29 1    
    56   27   95 1    
    57   28   96 1    
    58   28   97 1    
    59   28   98 1    
    60   29   30 am   BACKBONE|DICT|INTERRES
    61   29   99 1    
    62   30   31 2    
    63   30   32 1    
    64   32   33 1    
    65   32   34 1    
    66   32  100 1    
    67   33  101 1    
    68   33  102 1    
    69   33  103 1    
    70   34   35 am   BACKBONE|DICT|INTERRES
    71   34  104 1    
    72   35   36 2    
    73   37   38 2    
    74   37   39 am   BACKBONE|DICT|INTERRES
    75   39   40 1    
    76   39  105 1    
    77   40   41 1    
    78   40   42 1    
    79   40  106 1    
    80   41  107 1    
    81   41  108 1    
    82   41  109 1    
    83   42   43 2    
    84   42   44 am   BACKBONE|DICT|INTERRES
    85   44   45 1    
    86   44  110 1    
    87   45   46 1    
    88   45   47 1    
    89   45  111 1    
    90   46  112 1    
    91   46  113 1    
    92   46  114 1    
    93   47   48 2    
    94   47   49 am   BACKBONE|DICT|INTERRES
    95   49   50 1    
    96   49  115 1    
    97   50   51 1    
    98   50   52 1    
    99   50  116 1    
   100   51  117 1    
   101   51  118 1    
   102   51  119 1    
   103   52   53 2    
   104   52   54 am   BACKBONE|DICT|INTERRES
   105   54   55 1    
   106   54  120 1    
   107   55   56 1    
   108   55   57 1    
   109   55  121 1    
   110   56  122 1    
   111   56  123 1    
   112   56  124 1    
   113   57   58 2    
   114   57   59 am   BACKBONE|DICT|INTERRES
   115   59   60 1    
   116   59  125 1    
   117   60   61 1    
   118   60   62 1    
   119   60  126 1    
   120   61  127 1    
   121   61  128 1    
   122   61  129 1    
   123   62   63 2    
   124   62   64 am   BACKBONE|DICT|INTERRES
   125   64   65 1    
   126   64  130 1    
   127   65   66 1    
   128   65   69 1    
   129   65  131 1    
   130   66   67 am   BACKBONE|DICT|INTERRES
   131   66   68 2    
   132   67  132 1    
   133   67  133 1    
   134   69   70 1    
   135   69  134 1    
   136   69  135 1    
   137   70   71 1    
   138   71  136 1    
   139   71  137 1    
@<TRIPOS>SUBSTRUCTURE
     1 UNK         1 GROUP             0       ****    0 ROOT    
