@<TRIPOS>MOLECULE
3R136
137   139    1
SMALL
USER_CHARGES


@<TRIPOS>ATOM
      1 CA         29.9820   23.0471   -5.0752 C.3       0 UNK        -0.1979 
      2 C          29.0400   23.9712   -4.3178 C.2       0 UNK         0.4864 
      3 O          28.0901   24.4908   -4.9050 O.2       0 UNK        -0.5359 
      4 N          29.2969   24.1792   -3.0192 N.am      1 UNK        -0.4318 
      5 CA         28.5097   25.0521   -2.1362 C.3       1 UNK         0.0824 
      6 C6         29.2502   25.3743   -0.8141 C.3       12 UNK        -0.0944 
      7 S7         30.9126   26.0814   -1.0629 S.3       12 UNK        -0.2672 
      8 C8         31.9952   24.7474   -0.4545 C.3       12 UNK         0.0333 
      9 C9         32.0635   24.7052    1.0670 C.ar      12 UNK        -0.0807 
     10 C10        33.0105   25.4750    1.7492 C.ar      12 UNK        -0.0894 
     11 C11        33.1075   25.4190    3.1433 C.ar      12 UNK        -0.0804 
     12 C12        32.2332   24.5925    3.8590 C.ar      12 UNK        -0.0824 
     13 C13        31.2855   23.8109    3.1876 C.ar      12 UNK        -0.0762 
     14 C14        31.2131   23.8664    1.7930 C.ar      12 UNK        -0.0782 
     15 C15        30.3632   22.8710    3.9548 C.3       12 UNK         0.0230 
     16 S16        28.6137   23.3750    3.8516 S.3       12 UNK        -0.2608 
     17 C17        28.6211   24.8982    4.8504 C.3       12 UNK        -0.0989 
     18 CA         28.5956   26.1716    3.9691 C.3       5 UNK         0.0716 
     19 N          27.3405   26.3000    3.2194 N.am      5 UNK        -0.4135 
     20 C          27.1281   27.0888    2.1584 C.2       4 UNK         0.5031 
     21 O          28.0051   27.7970    1.6557 O.2       4 UNK        -0.5229 
     22 CA         25.6981   27.1144    1.5849 C.3       4 UNK         0.0329 
     23 CB         25.5881   27.9908    0.3225 C.3       4 UNK        -0.2001 
     24 N          25.1682   25.7756    1.2981 N.am      4 UNK        -0.4303 
     25 C          24.6445   24.9477    2.2162 C.2       3 UNK         0.5044 
     26 O          24.6511   25.1980    3.4228 O.2       3 UNK        -0.5152 
     27 CA         23.9881   23.6381    1.7387 C.3       3 UNK         0.0319 
     28 CB         22.4564   23.7608    1.7938 C.3       3 UNK        -0.2001 
     29 N          24.3810   23.2399    0.3866 N.am      3 UNK        -0.4354 
     30 C          25.5333   22.6314    0.0812 C.2       2 UNK         0.4964 
     31 O          26.3762   22.3030    0.9165 O.2       2 UNK        -0.5047 
     32 CA         25.8209   22.3607   -1.4083 C.3       2 UNK         0.0288 
     33 CB         24.6143   22.5851   -2.3505 C.3       2 UNK        -0.2113 
     34 N          26.9838   23.1375   -1.8494 N.am      2 UNK        -0.4145 
     35 C          27.1177   24.4737   -1.8058 C.2       1 UNK         0.5006 
     36 O          26.2094   25.2410   -1.4816 O.2       1 UNK        -0.5103 
     37 C          28.8797   27.4462    4.7913 C.2       5 UNK         0.5055 
     38 O          28.8381   27.4208    6.0223 O.2       5 UNK        -0.5220 
     39 N          29.1662   28.5369    4.0783 N.am      6 UNK        -0.4450 
     40 CA         29.5426   29.8507    4.5867 C.3       6 UNK         0.0367 
     41 CB         28.3484   30.5612    5.2518 C.3       6 UNK        -0.1929 
     42 C          30.1075   30.6910    3.4387 C.2       6 UNK         0.5070 
     43 O          31.1701   31.2912    3.5940 O.2       6 UNK        -0.5237 
     44 N          29.3879   30.6901    2.3056 N.am      7 UNK        -0.4739 
     45 CA         29.5688   31.5687    1.1441 C.3       7 UNK         0.0276 
     46 CB         28.4564   31.2613    0.1270 C.3       7 UNK        -0.1927 
     47 C          30.9435   31.5242    0.4535 C.2       7 UNK         0.5013 
     48 O          31.2888   32.4831   -0.2382 O.2       7 UNK        -0.5193 
     49 N          31.6986   30.4329    0.6358 N.am      8 UNK        -0.4253 
     50 CA         33.0461   30.2600    0.0858 C.3       8 UNK         0.0242 
     51 CB         33.4843   28.8001    0.2651 C.3       8 UNK        -0.2000 
     52 C          34.0954   31.2052    0.6987 C.2       8 UNK         0.4948 
     53 O          35.0750   31.5231    0.0225 O.2       8 UNK        -0.5275 
     54 N          33.8841   31.6294    1.9510 N.am      9 UNK        -0.4246 
     55 CA         34.7660   32.5176    2.7025 C.3       9 UNK         0.0261 
     56 CB         36.0963   31.8117    3.0606 C.3       9 UNK        -0.1959 
     57 C          33.9885   33.0104    3.9263 C.2       9 UNK         0.5033 
     58 O          33.2676   34.0043    3.8284 O.2       9 UNK        -0.5390 
     59 N          34.1297   32.2867    5.0404 N.am      10 UNK        -0.4215 
     60 CA         33.4053   32.4812    6.2923 C.3       10 UNK         0.0240 
     61 CB         34.0461   33.6177    7.1159 C.3       10 UNK        -0.1982 
     62 C          33.3708   31.1357    7.0297 C.2       10 UNK         0.4970 
     63 O          33.8244   31.0424    8.1711 O.2       10 UNK        -0.4916 
     64 N          32.8833   30.1010    6.3322 N.am      11 UNK        -0.4279 
     65 CA         32.8552   28.7031    6.8021 C.3       11 UNK         0.1003 
     66 C          31.8898   28.4175    7.9922 C.2       11 UNK         0.5709 
     67 N          30.9969   29.3272    8.3646 N.am      11 UNK        -0.7358 
     68 O          31.9645   27.3504    8.5969 O.2       11 UNK        -0.4999 
     69 C69        32.5991   27.7015    5.6437 C.3       12 UNK        -0.0954 
     70 S70        33.7039   27.9246    4.2112 S.3       12 UNK        -0.2268 
     71 C71        34.1980   26.2080    3.8601 C.3       12 UNK         0.0203 
     72 H72        30.4422   23.5806   -5.9065 H         1 UNK         0.0888 
     73 H73        30.7781   22.6630   -4.4375 H         1 UNK         0.0888 
     74 H74        29.4309   22.1979   -5.4785 H         1 UNK         0.0888 
     75 H75        30.1089   23.7505   -2.6002 H         1 UNK         0.3017 
     76 H76        28.3439   25.9931   -2.6657 H         1 UNK         0.0873 
     77 H77        28.6787   26.1022   -0.2376 H         1 UNK         0.0745 
     78 H78        29.3149   24.4857   -0.1872 H         1 UNK         0.0745 
     79 H79        31.6604   23.7875   -0.8498 H         1 UNK         0.0705 
     80 H80        32.9965   24.9047   -0.8586 H         1 UNK         0.0705 
     81 H81        33.6903   26.1028    1.1909 H         1 UNK         0.1334 
     82 H82        32.3089   24.5371    4.9362 H         1 UNK         0.1417 
     83 H83        30.4938   23.2448    1.2784 H         1 UNK         0.1562 
     84 H84        30.6597   22.7967    5.0023 H         1 UNK         0.0748 
     85 H85        30.4607   21.8660    3.5417 H         1 UNK         0.0748 
     86 H86        29.5029   24.8896    5.4944 H         1 UNK         0.0940 
     87 H87        27.7609   24.8785    5.5223 H         1 UNK         0.0940 
     88 H88        29.4085   26.0852    3.2440 H         1 UNK         0.0703 
     89 H89        26.5484   25.7701    3.5687 H         1 UNK         0.3081 
     90 H90        25.0667   27.5753    2.3475 H         1 UNK         0.0719 
     91 H91        25.8564   29.0250    0.5420 H         1 UNK         0.0809 
     92 H92        26.2549   27.6477   -0.4688 H         1 UNK         0.0809 
     93 H93        24.5722   27.9977   -0.0723 H         1 UNK         0.0809 
     94 H94        25.2155   25.4755    0.3298 H         1 UNK         0.2990 
     95 H95        24.2885   22.8526    2.4359 H         1 UNK         0.0690 
     96 H96        22.1211   24.0231    2.7984 H         1 UNK         0.0788 
     97 H97        21.9729   22.8202    1.5291 H         1 UNK         0.0788 
     98 H98        22.0876   24.5318    1.1158 H         1 UNK         0.0788 
     99 H99        23.7567   23.4921   -0.3664 H         1 UNK         0.2993 
    100 H100       26.1013   21.3083   -1.4763 H         1 UNK         0.0949 
    101 H101       24.8686   22.3122   -3.3749 H         1 UNK         0.0767 
    102 H102       23.7659   21.9645   -2.0586 H         1 UNK         0.0767 
    103 H103       24.2794   23.6227   -2.3655 H         1 UNK         0.0767 
    104 H104       27.7975   22.5973   -2.1065 H         1 UNK         0.3013 
    105 H105       29.1242   28.4380    3.0661 H         1 UNK         0.3121 
    106 H106       30.3252   29.7263    5.3337 H         1 UNK         0.0774 
    107 H107       28.6210   31.5692    5.5673 H         1 UNK         0.0815 
    108 H108       27.4988   30.6484    4.5738 H         1 UNK         0.0815 
    109 H109       28.0118   30.0285    6.1411 H         1 UNK         0.0815 
    110 H110       28.5509   30.1239    2.2811 H         1 UNK         0.2987 
    111 H111       29.4346   32.5933    1.4974 H         1 UNK         0.0949 
    112 H112       28.5025   30.2270   -0.2178 H         1 UNK         0.0806 
    113 H113       27.4677   31.4279    0.5551 H         1 UNK         0.0806 
    114 H114       28.5370   31.9028   -0.7520 H         1 UNK         0.0806 
    115 H115       31.3328   29.6894    1.2120 H         1 UNK         0.3010 
    116 H116       33.0011   30.4732   -0.9844 H         1 UNK         0.0829 
    117 H117       33.5112   28.5175    1.3170 H         1 UNK         0.0813 
    118 H118       32.8099   28.1193   -0.2511 H         1 UNK         0.0813 
    119 H119       34.4825   28.6360   -0.1433 H         1 UNK         0.0813 
    120 H120       33.0151   31.3796    2.4140 H         1 UNK         0.3038 
    121 H121       34.9900   33.3924    2.0883 H         1 UNK         0.0769 
    122 H122       35.9364   30.8345    3.5178 H         1 UNK         0.0811 
    123 H123       36.6898   32.4136    3.7504 H         1 UNK         0.0811 
    124 H124       36.7105   31.6569    2.1737 H         1 UNK         0.0811 
    125 H125       34.7422   31.4824    5.0126 H         1 UNK         0.3204 
    126 H126       32.3707   32.7507    6.0680 H         1 UNK         0.0748 
    127 H127       33.5166   33.7647    8.0581 H         1 UNK         0.0771 
    128 H128       35.0886   33.4033    7.3542 H         1 UNK         0.0771 
    129 H129       34.0144   34.5653    6.5779 H         1 UNK         0.0771 
    130 H130       32.5417   30.2640    5.3952 H         1 UNK         0.2980 
    131 H131       33.8550   28.4912    7.1860 H         1 UNK         0.0545 
    132 H132       30.3812   29.1224    9.1351 H         1 UNK         0.3459 
    133 H133       30.9367   30.2130    7.8919 H         1 UNK         0.3459 
    134 H134       31.5795   27.7840    5.2806 H         1 UNK         0.0616 
    135 H135       32.7002   26.6806    6.0141 H         1 UNK         0.0616 
    136 H136       35.0945   26.2305    3.2388 H         1 UNK         0.0634 
    137 H137       34.4903   25.7098    4.7857 H         1 UNK         0.0634 
@<TRIPOS>BOND
     1    1    2 1    
     2    1   72 1    
     3    1   73 1    
     4    1   74 1    
     5    2    3 2    
     6    2    4 am   BACKBONE|DICT|INTERRES
     7    4    5 1    
     8    4   75 1    
     9    5    6 1    
    10    5   35 1    
    11    5   76 1    
    12    6    7 1    
    13    6   77 1    
    14    6   78 1    
    15    7    8 1    
    16    8    9 1    
    17    8   79 1    
    18    8   80 1    
    19    9   10 ar   
    20    9   14 ar   
    21   10   11 ar   
    22   10   81 1    
    23   11   12 ar   
    24   11   71 1    
    25   12   13 ar   
    26   12   82 1    
    27   13   14 ar   
    28   13   15 1    
    29   14   83 1    
    30   15   16 1    
    31   15   84 1    
    32   15   85 1    
    33   16   17 1    
    34   17   18 1    
    35   17   86 1    
    36   17   87 1    
    37   18   19 1    
    38   18   37 1    
    39   18   88 1    
    40   19   20 am   BACKBONE|DICT|INTERRES
    41   19   89 1    
    42   20   21 2    
    43   20   22 1    
    44   22   23 1    
    45   22   24 1    
    46   22   90 1    
    47   23   91 1    
    48   23   92 1    
    49   23   93 1    
    50   24   25 am   BACKBONE|DICT|INTERRES
    51   24   94 1    
    52   25   26 2    
    53   25   27 1    
    54   27   28 1    
    55   27   29 1    
    56   27   95 1    
    57   28   96 1    
    58   28   97 1    
    59   28   98 1    
    60   29   30 am   BACKBONE|DICT|INTERRES
    61   29   99 1    
    62   30   31 2    
    63   30   32 1    
    64   32   33 1    
    65   32   34 1    
    66   32  100 1    
    67   33  101 1    
    68   33  102 1    
    69   33  103 1    
    70   34   35 am   BACKBONE|DICT|INTERRES
    71   34  104 1    
    72   35   36 2    
    73   37   38 2    
    74   37   39 am   BACKBONE|DICT|INTERRES
    75   39   40 1    
    76   39  105 1    
    77   40   41 1    
    78   40   42 1    
    79   40  106 1    
    80   41  107 1    
    81   41  108 1    
    82   41  109 1    
    83   42   43 2    
    84   42   44 am   BACKBONE|DICT|INTERRES
    85   44   45 1    
    86   44  110 1    
    87   45   46 1    
    88   45   47 1    
    89   45  111 1    
    90   46  112 1    
    91   46  113 1    
    92   46  114 1    
    93   47   48 2    
    94   47   49 am   BACKBONE|DICT|INTERRES
    95   49   50 1    
    96   49  115 1    
    97   50   51 1    
    98   50   52 1    
    99   50  116 1    
   100   51  117 1    
   101   51  118 1    
   102   51  119 1    
   103   52   53 2    
   104   52   54 am   BACKBONE|DICT|INTERRES
   105   54   55 1    
   106   54  120 1    
   107   55   56 1    
   108   55   57 1    
   109   55  121 1    
   110   56  122 1    
   111   56  123 1    
   112   56  124 1    
   113   57   58 2    
   114   57   59 am   BACKBONE|DICT|INTERRES
   115   59   60 1    
   116   59  125 1    
   117   60   61 1    
   118   60   62 1    
   119   60  126 1    
   120   61  127 1    
   121   61  128 1    
   122   61  129 1    
   123   62   63 2    
   124   62   64 am   BACKBONE|DICT|INTERRES
   125   64   65 1    
   126   64  130 1    
   127   65   66 1    
   128   65   69 1    
   129   65  131 1    
   130   66   67 am   BACKBONE|DICT|INTERRES
   131   66   68 2    
   132   67  132 1    
   133   67  133 1    
   134   69   70 1    
   135   69  134 1    
   136   69  135 1    
   137   70   71 1    
   138   71  136 1    
   139   71  137 1    
@<TRIPOS>SUBSTRUCTURE
     1 UNK         1 GROUP             0       ****    0 ROOT    
