@<TRIPOS>MOLECULE
3R136
137   139    1
SMALL
USER_CHARGES


@<TRIPOS>ATOM
      1 CA         24.6615   26.8535   -0.7964 C.3       0 UNK        -0.1979 
      2 C          25.9942   26.3549   -0.2610 C.2       0 UNK         0.4864 
      3 O          26.6548   27.0723    0.4911 O.2       0 UNK        -0.5359 
      4 N          26.3963   25.1347   -0.6438 N.am      1 UNK        -0.4318 
      5 CA         27.6608   24.5031   -0.2368 C.3       1 UNK         0.0824 
      6 C6         28.3058   23.6852   -1.3954 C.3       12 UNK        -0.0944 
      7 S7         30.0082   24.2388   -1.7622 S.3       12 UNK        -0.2672 
      8 C8         31.0367   23.0223   -0.8730 C.3       12 UNK         0.0333 
      9 C9         32.0357   23.7093    0.0491 C.ar      12 UNK        -0.0807 
     10 C10        31.8775   23.6537    1.4387 C.ar      12 UNK        -0.0894 
     11 C11        32.7876   24.2957    2.2859 C.ar      12 UNK        -0.0804 
     12 C12        33.8563   25.0057    1.7292 C.ar      12 UNK        -0.0824 
     13 C13        34.0102   25.0923    0.3432 C.ar      12 UNK        -0.0762 
     14 C14        33.1155   24.4151   -0.4916 C.ar      12 UNK        -0.0782 
     15 C15        35.1045   25.9690   -0.2496 C.3       12 UNK         0.0230 
     16 S16        34.4211   27.4469   -1.0779 S.3       12 UNK        -0.2608 
     17 C17        33.4871   28.2754    0.2611 C.3       12 UNK        -0.0989 
     18 CA         31.9906   27.8654    0.2732 C.3       5 UNK         0.0716 
     19 N          31.3643   28.1235    1.5720 N.am      5 UNK        -0.4135 
     20 C          30.3314   27.4247    2.0515 C.2       4 UNK         0.5031 
     21 O          29.8339   26.4626    1.4650 O.2       4 UNK        -0.5229 
     22 CA         29.7197   27.8754    3.3785 C.3       4 UNK         0.0329 
     23 CB         28.7909   29.0882    3.1896 C.3       4 UNK        -0.2001 
     24 N          28.9576   26.7512    3.9088 N.am      4 UNK        -0.4303 
     25 C          28.6866   26.5257    5.1962 C.2       3 UNK         0.5044 
     26 O          29.0320   27.2866    6.1014 O.2       3 UNK        -0.5152 
     27 CA         27.9154   25.2406    5.5400 C.3       3 UNK         0.0319 
     28 CB         26.9577   25.4367    6.7328 C.3       3 UNK        -0.2001 
     29 N          27.1783   24.7063    4.3892 N.am      3 UNK        -0.4354 
     30 C          26.9038   23.4083    4.2038 C.2       2 UNK         0.4964 
     31 O          27.2742   22.5127    4.9640 O.2       2 UNK        -0.5047 
     32 CA         26.0565   23.0400    2.9738 C.3       2 UNK         0.0288 
     33 CB         24.5587   23.2001    3.2837 C.3       2 UNK        -0.2113 
     34 N          26.3870   23.8072    1.7699 N.am      2 UNK        -0.4145 
     35 C          27.5298   23.6906    1.0757 C.2       1 UNK         0.5006 
     36 O          28.4466   22.9467    1.4253 O.2       1 UNK        -0.5103 
     37 C          31.1421   28.4775   -0.8634 C.2       5 UNK         0.5055 
     38 O          31.5396   29.4686   -1.4784 O.2       5 UNK        -0.5220 
     39 N          29.9725   27.8637   -1.0983 N.am      6 UNK        -0.4450 
     40 CA         28.9321   28.2352   -2.0610 C.3       6 UNK         0.0367 
     41 CB         29.4572   28.1727   -3.5110 C.3       6 UNK        -0.1929 
     42 C          28.2841   29.5845   -1.7006 C.2       6 UNK         0.5070 
     43 O          28.4194   30.5600   -2.4404 O.2       6 UNK        -0.5237 
     44 N          27.5867   29.5983   -0.5549 N.am      7 UNK        -0.4739 
     45 CA         26.7863   30.7009    0.0014 C.3       7 UNK         0.0276 
     46 CB         25.6074   31.0478   -0.9332 C.3       7 UNK        -0.1927 
     47 C          27.5790   31.9556    0.4281 C.2       7 UNK         0.5013 
     48 O          26.9666   32.9911    0.6953 O.2       7 UNK        -0.5193 
     49 N          28.9065   31.8478    0.5299 N.am      8 UNK        -0.4253 
     50 CA         29.8155   32.8681    1.0460 C.3       8 UNK         0.0242 
     51 CB         30.2900   33.7742   -0.1030 C.3       8 UNK        -0.2000 
     52 C          30.9932   32.1434    1.7029 C.2       8 UNK         0.4948 
     53 O          31.2950   31.0230    1.2944 O.2       8 UNK        -0.5275 
     54 N          31.6276   32.7813    2.6979 N.am      9 UNK        -0.4246 
     55 CA         32.7115   32.2433    3.5352 C.3       9 UNK         0.0261 
     56 CB         33.9872   31.9892    2.7027 C.3       9 UNK        -0.1959 
     57 C          32.2552   30.9889    4.3058 C.2       9 UNK         0.5033 
     58 O          32.4560   29.8677    3.8334 O.2       9 UNK        -0.5390 
     59 N          31.5980   31.2181    5.4521 N.am      10 UNK        -0.4215 
     60 CA         31.0238   30.1930    6.3296 C.3       10 UNK         0.0240 
     61 CB         30.3223   30.8744    7.5156 C.3       10 UNK        -0.1982 
     62 C          32.0632   29.1743    6.8312 C.2       10 UNK         0.4970 
     63 O          33.1603   29.5693    7.2335 O.2       10 UNK        -0.4916 
     64 N          31.6799   27.8947    6.8150 N.am      11 UNK        -0.4279 
     65 CA         32.5223   26.7509    7.2005 C.3       11 UNK         0.1003 
     66 C          32.4261   26.3817    8.7083 C.2       11 UNK         0.5709 
     67 N          31.5615   27.0104    9.4966 N.am      11 UNK        -0.7358 
     68 O          33.1621   25.5168    9.1775 O.2       11 UNK        -0.4999 
     69 C69        32.2546   25.5165    6.2957 C.3       12 UNK        -0.0954 
     70 S70        32.5266   25.8939    4.5341 S.3       12 UNK        -0.2268 
     71 C71        32.6155   24.2319    3.7998 C.3       12 UNK         0.0203 
     72 H72        24.8238   27.6816   -1.4853 H         1 UNK         0.0888 
     73 H73        24.1159   26.0723   -1.3252 H         1 UNK         0.0888 
     74 H74        24.0367   27.2085    0.0227 H         1 UNK         0.0888 
     75 H75        25.8076   24.5851   -1.2548 H         1 UNK         0.3017 
     76 H76        28.3442   25.3109    0.0046 H         1 UNK         0.0873 
     77 H77        27.7403   23.8190   -2.3189 H         1 UNK         0.0745 
     78 H78        28.2891   22.6084   -1.2163 H         1 UNK         0.0745 
     79 H79        30.4114   22.3317   -0.3065 H         1 UNK         0.0705 
     80 H80        31.5743   22.4146   -1.6020 H         1 UNK         0.0705 
     81 H81        31.0389   23.1169    1.8603 H         1 UNK         0.1334 
     82 H82        34.5469   25.5238    2.3805 H         1 UNK         0.1417 
     83 H83        33.2278   24.4830   -1.5654 H         1 UNK         0.1562 
     84 H84        35.6782   25.3891   -0.9739 H         1 UNK         0.0748 
     85 H85        35.8114   26.2855    0.5190 H         1 UNK         0.0748 
     86 H86        33.5951   29.3574    0.1652 H         1 UNK         0.0940 
     87 H87        33.9539   28.0179    1.2134 H         1 UNK         0.0940 
     88 H88        31.9552   26.7881    0.1170 H         1 UNK         0.0703 
     89 H89        31.6833   28.9503    2.0720 H         1 UNK         0.3081 
     90 H90        30.5322   28.1184    4.0625 H         1 UNK         0.0719 
     91 H91        28.0010   28.8777    2.4674 H         1 UNK         0.0809 
     92 H92        28.3178   29.3791    4.1273 H         1 UNK         0.0809 
     93 H93        29.3470   29.9520    2.8298 H         1 UNK         0.0809 
     94 H94        28.7501   26.0476    3.2102 H         1 UNK         0.2990 
     95 H95        28.6795   24.5175    5.8331 H         1 UNK         0.0690 
     96 H96        26.4651   24.5037    7.0068 H         1 UNK         0.0788 
     97 H97        26.1838   26.1710    6.5068 H         1 UNK         0.0788 
     98 H98        27.4928   25.7855    7.6170 H         1 UNK         0.0788 
     99 H99        26.8193   25.3814    3.7281 H         1 UNK         0.2993 
    100 H100       26.2452   21.9860    2.7565 H         1 UNK         0.0949 
    101 H101       24.2931   24.2400    3.4785 H         1 UNK         0.0767 
    102 H102       23.9423   22.8443    2.4578 H         1 UNK         0.0767 
    103 H103       24.2792   22.6219    4.1658 H         1 UNK         0.0767 
    104 H104       25.6814   24.4373    1.4184 H         1 UNK         0.3013 
    105 H105       29.7412   27.0964   -0.4729 H         1 UNK         0.3121 
    106 H106       28.1530   27.4772   -1.9749 H         1 UNK         0.0774 
    107 H107       28.6503   28.3542   -4.2218 H         1 UNK         0.0815 
    108 H108       30.2283   28.9192   -3.7023 H         1 UNK         0.0815 
    109 H109       29.8756   27.1919   -3.7372 H         1 UNK         0.0815 
    110 H110       27.5069   28.7206   -0.0442 H         1 UNK         0.2987 
    111 H111       26.3573   30.3069    0.9241 H         1 UNK         0.0949 
    112 H112       25.9482   31.5051   -1.8624 H         1 UNK         0.0806 
    113 H113       25.0270   30.1615   -1.1872 H         1 UNK         0.0806 
    114 H114       24.9230   31.7523   -0.4588 H         1 UNK         0.0806 
    115 H115       29.3547   30.9652    0.3142 H         1 UNK         0.3010 
    116 H116       29.3050   33.4660    1.8042 H         1 UNK         0.0829 
    117 H117       29.4523   34.2902   -0.5724 H         1 UNK         0.0813 
    118 H118       30.9815   34.5368    0.2572 H         1 UNK         0.0813 
    119 H119       30.8054   33.2018   -0.8759 H         1 UNK         0.0813 
    120 H120       31.2983   33.7017    2.9556 H         1 UNK         0.3038 
    121 H121       32.9548   33.0126    4.2700 H         1 UNK         0.0769 
    122 H122       33.8380   31.2232    1.9415 H         1 UNK         0.0811 
    123 H123       34.8039   31.6511    3.3414 H         1 UNK         0.0811 
    124 H124       34.3202   32.8975    2.2010 H         1 UNK         0.0811 
    125 H125       31.4911   32.1738    5.7588 H         1 UNK         0.3204 
    126 H126       30.2647   29.6666    5.7511 H         1 UNK         0.0748 
    127 H127       29.8490   30.1360    8.1644 H         1 UNK         0.0771 
    128 H128       31.0237   31.4444    8.1265 H         1 UNK         0.0771 
    129 H129       29.5387   31.5533    7.1784 H         1 UNK         0.0771 
    130 H130       30.7328   27.6657    6.5175 H         1 UNK         0.2980 
    131 H131       33.5651   27.0335    7.0441 H         1 UNK         0.0545 
    132 H132       31.5144   26.7658   10.4730 H         1 UNK         0.3459 
    133 H133       30.9533   27.7200    9.1216 H         1 UNK         0.3459 
    134 H134       32.9128   24.6903    6.5705 H         1 UNK         0.0616 
    135 H135       31.2323   25.1572    6.4233 H         1 UNK         0.0616 
    136 H136       31.7104   23.6826    4.0637 H         1 UNK         0.0634 
    137 H137       33.4555   23.6882    4.2339 H         1 UNK         0.0634 
@<TRIPOS>BOND
     1    1    2 1    
     2    1   72 1    
     3    1   73 1    
     4    1   74 1    
     5    2    3 2    
     6    2    4 am   BACKBONE|DICT|INTERRES
     7    4    5 1    
     8    4   75 1    
     9    5    6 1    
    10    5   35 1    
    11    5   76 1    
    12    6    7 1    
    13    6   77 1    
    14    6   78 1    
    15    7    8 1    
    16    8    9 1    
    17    8   79 1    
    18    8   80 1    
    19    9   10 ar   
    20    9   14 ar   
    21   10   11 ar   
    22   10   81 1    
    23   11   12 ar   
    24   11   71 1    
    25   12   13 ar   
    26   12   82 1    
    27   13   14 ar   
    28   13   15 1    
    29   14   83 1    
    30   15   16 1    
    31   15   84 1    
    32   15   85 1    
    33   16   17 1    
    34   17   18 1    
    35   17   86 1    
    36   17   87 1    
    37   18   19 1    
    38   18   37 1    
    39   18   88 1    
    40   19   20 am   BACKBONE|DICT|INTERRES
    41   19   89 1    
    42   20   21 2    
    43   20   22 1    
    44   22   23 1    
    45   22   24 1    
    46   22   90 1    
    47   23   91 1    
    48   23   92 1    
    49   23   93 1    
    50   24   25 am   BACKBONE|DICT|INTERRES
    51   24   94 1    
    52   25   26 2    
    53   25   27 1    
    54   27   28 1    
    55   27   29 1    
    56   27   95 1    
    57   28   96 1    
    58   28   97 1    
    59   28   98 1    
    60   29   30 am   BACKBONE|DICT|INTERRES
    61   29   99 1    
    62   30   31 2    
    63   30   32 1    
    64   32   33 1    
    65   32   34 1    
    66   32  100 1    
    67   33  101 1    
    68   33  102 1    
    69   33  103 1    
    70   34   35 am   BACKBONE|DICT|INTERRES
    71   34  104 1    
    72   35   36 2    
    73   37   38 2    
    74   37   39 am   BACKBONE|DICT|INTERRES
    75   39   40 1    
    76   39  105 1    
    77   40   41 1    
    78   40   42 1    
    79   40  106 1    
    80   41  107 1    
    81   41  108 1    
    82   41  109 1    
    83   42   43 2    
    84   42   44 am   BACKBONE|DICT|INTERRES
    85   44   45 1    
    86   44  110 1    
    87   45   46 1    
    88   45   47 1    
    89   45  111 1    
    90   46  112 1    
    91   46  113 1    
    92   46  114 1    
    93   47   48 2    
    94   47   49 am   BACKBONE|DICT|INTERRES
    95   49   50 1    
    96   49  115 1    
    97   50   51 1    
    98   50   52 1    
    99   50  116 1    
   100   51  117 1    
   101   51  118 1    
   102   51  119 1    
   103   52   53 2    
   104   52   54 am   BACKBONE|DICT|INTERRES
   105   54   55 1    
   106   54  120 1    
   107   55   56 1    
   108   55   57 1    
   109   55  121 1    
   110   56  122 1    
   111   56  123 1    
   112   56  124 1    
   113   57   58 2    
   114   57   59 am   BACKBONE|DICT|INTERRES
   115   59   60 1    
   116   59  125 1    
   117   60   61 1    
   118   60   62 1    
   119   60  126 1    
   120   61  127 1    
   121   61  128 1    
   122   61  129 1    
   123   62   63 2    
   124   62   64 am   BACKBONE|DICT|INTERRES
   125   64   65 1    
   126   64  130 1    
   127   65   66 1    
   128   65   69 1    
   129   65  131 1    
   130   66   67 am   BACKBONE|DICT|INTERRES
   131   66   68 2    
   132   67  132 1    
   133   67  133 1    
   134   69   70 1    
   135   69  134 1    
   136   69  135 1    
   137   70   71 1    
   138   71  136 1    
   139   71  137 1    
@<TRIPOS>SUBSTRUCTURE
     1 UNK         1 GROUP             0       ****    0 ROOT    
