@<TRIPOS>MOLECULE
3R136
137   139    1
SMALL
USER_CHARGES


@<TRIPOS>ATOM
      1 CA         30.7817   17.6502    1.3029 C.3       0 UNK        -0.1979 
      2 C          30.7298   19.1501    1.0520 C.2       0 UNK         0.4864 
      3 O          31.3364   19.6314    0.0939 O.2       0 UNK        -0.5359 
      4 N          30.0182   19.8907    1.9105 N.am      1 UNK        -0.4318 
      5 CA         29.8203   21.3403    1.8086 C.3       1 UNK         0.0824 
      6 C6         29.2416   21.9479    3.1201 C.3       12 UNK        -0.0944 
      7 S7         29.9142   21.3066    4.6969 S.3       12 UNK        -0.2672 
      8 C8         31.7211   21.4972    4.5202 C.3       12 UNK         0.0333 
      9 C9         32.2071   22.9286    4.3036 C.ar      12 UNK        -0.0807 
     10 C10        33.3822   23.1324    3.5777 C.ar      12 UNK        -0.0894 
     11 C11        33.8661   24.4213    3.3424 C.ar      12 UNK        -0.0804 
     12 C12        33.1658   25.5228    3.8465 C.ar      12 UNK        -0.0824 
     13 C13        31.9820   25.3376    4.5682 C.ar      12 UNK        -0.0762 
     14 C14        31.5258   24.0387    4.8176 C.ar      12 UNK        -0.0782 
     15 C15        31.1817   26.5357    5.0627 C.3       12 UNK         0.0230 
     16 S16        29.4995   26.5352    4.3621 S.3       12 UNK        -0.2608 
     17 C17        28.8360   28.1228    4.9730 C.3       12 UNK        -0.0989 
     18 CA         28.7708   29.2033    3.8647 C.3       5 UNK         0.0716 
     19 N          28.1015   28.7020    2.6582 N.am      5 UNK        -0.4135 
     20 C          27.9013   29.3422    1.4976 C.2       4 UNK         0.5031 
     21 O          28.1077   30.5444    1.3383 O.2       4 UNK        -0.5229 
     22 CA         27.3878   28.5084    0.3069 C.3       4 UNK         0.0329 
     23 CB         28.3804   28.5698   -0.8672 C.3       4 UNK        -0.2001 
     24 N          27.1508   27.1019    0.6456 N.am      4 UNK        -0.4303 
     25 C          26.0575   26.6219    1.2550 C.2       3 UNK         0.5044 
     26 O          25.0980   27.3241    1.5761 O.2       3 UNK        -0.5152 
     27 CA         26.0653   25.1214    1.6143 C.3       3 UNK         0.0319 
     28 CB         24.6550   24.4938    1.6016 C.3       3 UNK        -0.2001 
     29 N          27.0180   24.3302    0.8217 N.am      3 UNK        -0.4354 
     30 C          26.9647   24.0477   -0.4911 C.2       2 UNK         0.4964 
     31 O          26.0485   24.4021   -1.2330 O.2       2 UNK        -0.5047 
     32 CA         28.1533   23.2720   -1.0960 C.3       2 UNK         0.0288 
     33 CB         28.8989   24.1592   -2.1052 C.3       2 UNK        -0.2113 
     34 N          29.0968   22.7691   -0.0836 N.am      2 UNK        -0.4145 
     35 C          28.8649   21.6608    0.6377 C.2       1 UNK         0.5006 
     36 O          27.8846   20.9329    0.4535 O.2       1 UNK        -0.5103 
     37 C          28.2102   30.5254    4.4308 C.2       5 UNK         0.5055 
     38 O          28.9433   31.2344    5.1220 O.2       5 UNK        -0.5220 
     39 N          26.9516   30.8603    4.1115 N.am      6 UNK        -0.4450 
     40 CA         26.3314   32.1551    4.4069 C.3       6 UNK         0.0367 
     41 CB         24.8537   32.1196    3.9870 C.3       6 UNK        -0.1929 
     42 C          27.0525   33.3434    3.7400 C.2       6 UNK         0.5070 
     43 O          27.0706   34.4341    4.3113 O.2       6 UNK        -0.5237 
     44 N          27.6768   33.1146    2.5756 N.am      7 UNK        -0.4739 
     45 CA         28.5121   34.0822    1.8638 C.3       7 UNK         0.0276 
     46 CB         28.4620   33.7757    0.3549 C.3       7 UNK        -0.1927 
     47 C          29.9475   34.0798    2.4235 C.2       7 UNK         0.5013 
     48 O          30.8935   33.7895    1.6908 O.2       7 UNK        -0.5193 
     49 N          30.0748   34.3921    3.7214 N.am      8 UNK        -0.4253 
     50 CA         31.3197   34.5380    4.4877 C.3       8 UNK         0.0242 
     51 CB         32.0656   35.8172    4.0501 C.3       8 UNK        -0.2000 
     52 C          32.2181   33.2835    4.4594 C.2       8 UNK         0.4948 
     53 O          33.4125   33.3874    4.1733 O.2       8 UNK        -0.5275 
     54 N          31.6213   32.1219    4.7660 N.am      9 UNK        -0.4246 
     55 CA         32.2535   30.7995    4.8601 C.3       9 UNK         0.0261 
     56 CB         33.3071   30.7602    5.9887 C.3       9 UNK        -0.1959 
     57 C          32.7864   30.2555    3.5192 C.2       9 UNK         0.5033 
     58 O          33.7448   29.4798    3.5212 O.2       9 UNK        -0.5390 
     59 N          32.1476   30.6377    2.4017 N.am      10 UNK        -0.4215 
     60 CA         32.4160   30.0999    1.0644 C.3       10 UNK         0.0240 
     61 CB         31.5640   30.8436    0.0243 C.3       10 UNK        -0.1982 
     62 C          32.1522   28.5856    0.9955 C.2       10 UNK         0.4970 
     63 O          31.1238   28.1228    1.4900 O.2       10 UNK        -0.4916 
     64 N          33.0938   27.8518    0.3946 N.am      11 UNK        -0.4279 
     65 CA         33.0900   26.3836    0.3372 C.3       11 UNK         0.1003 
     66 C          32.0327   25.7659   -0.6174 C.2       11 UNK         0.5709 
     67 N          31.6278   26.4655   -1.6713 N.am      11 UNK        -0.7358 
     68 O          31.5573   24.6562   -0.3825 O.2       11 UNK        -0.4999 
     69 C69        34.5245   25.8573    0.0677 C.3       12 UNK        -0.0954 
     70 S70        34.8618   24.2113    0.7702 S.3       12 UNK        -0.2268 
     71 C71        35.1398   24.6018    2.5296 C.3       12 UNK         0.0203 
     72 H72        31.8137   17.3281    1.4400 H         1 UNK         0.0888 
     73 H73        30.2173   17.3658    2.1909 H         1 UNK         0.0888 
     74 H74        30.3666   17.1129    0.4507 H         1 UNK         0.0888 
     75 H75        29.5277   19.4427    2.6711 H         1 UNK         0.3017 
     76 H76        30.7905   21.8009    1.6073 H         1 UNK         0.0873 
     77 H77        29.3694   23.0318    3.1125 H         1 UNK         0.0745 
     78 H78        28.1634   21.7808    3.1769 H         1 UNK         0.0745 
     79 H79        32.1948   21.1098    5.4228 H         1 UNK         0.0705 
     80 H80        32.0566   20.8578    3.7024 H         1 UNK         0.0705 
     81 H81        33.9223   22.2836    3.1799 H         1 UNK         0.1334 
     82 H82        33.5275   26.5245    3.6535 H         1 UNK         0.1417 
     83 H83        30.6176   23.9023    5.3881 H         1 UNK         0.1562 
     84 H84        31.6781   27.4685    4.7903 H         1 UNK         0.0748 
     85 H85        31.1257   26.5109    6.1518 H         1 UNK         0.0748 
     86 H86        29.4404   28.4679    5.8146 H         1 UNK         0.0940 
     87 H87        27.8398   27.9321    5.3775 H         1 UNK         0.0940 
     88 H88        29.7932   29.4189    3.5542 H         1 UNK         0.0703 
     89 H89        27.9222   27.7097    2.6671 H         1 UNK         0.3081 
     90 H90        26.4471   28.9573   -0.0187 H         1 UNK         0.0719 
     91 H91        29.3475   28.1422   -0.6007 H         1 UNK         0.0809 
     92 H92        28.0025   28.0295   -1.7354 H         1 UNK         0.0809 
     93 H93        28.5556   29.6000   -1.1801 H         1 UNK         0.0809 
     94 H94        27.8961   26.4568    0.4283 H         1 UNK         0.2990 
     95 H95        26.4281   25.0712    2.6422 H         1 UNK         0.0690 
     96 H96        24.6892   23.4352    1.8591 H         1 UNK         0.0788 
     97 H97        24.1757   24.5879    0.6269 H         1 UNK         0.0788 
     98 H98        24.0040   24.9814    2.3283 H         1 UNK         0.0788 
     99 H99        27.8256   23.9972    1.3273 H         1 UNK         0.2993 
    100 H100       27.7405   22.4217   -1.6437 H         1 UNK         0.0949 
    101 H101       29.7936   23.6683   -2.4890 H         1 UNK         0.0767 
    102 H102       28.2637   24.3919   -2.9610 H         1 UNK         0.0767 
    103 H103       29.1923   25.1078   -1.6570 H         1 UNK         0.0767 
    104 H104       29.9383   23.3173    0.0677 H         1 UNK         0.3013 
    105 H105       26.4238   30.2235    3.5324 H         1 UNK         0.3121 
    106 H106       26.3793   32.3074    5.4873 H         1 UNK         0.0774 
    107 H107       24.7423   31.9474    2.9156 H         1 UNK         0.0815 
    108 H108       24.3605   33.0650    4.2179 H         1 UNK         0.0815 
    109 H109       24.3091   31.3354    4.5131 H         1 UNK         0.0815 
    110 H110       27.6765   32.1707    2.1932 H         1 UNK         0.2987 
    111 H111       28.1080   35.0866    2.0093 H         1 UNK         0.0949 
    112 H112       28.8809   32.7953    0.1258 H         1 UNK         0.0806 
    113 H113       27.4392   33.7982   -0.0211 H         1 UNK         0.0806 
    114 H114       29.0324   34.5128   -0.2116 H         1 UNK         0.0806 
    115 H115       29.2158   34.5685    4.2316 H         1 UNK         0.3010 
    116 H116       31.0241   34.6724    5.5294 H         1 UNK         0.0829 
    117 H117       32.4147   35.7484    3.0191 H         1 UNK         0.0813 
    118 H118       31.4267   36.6966    4.1298 H         1 UNK         0.0813 
    119 H119       32.9393   35.9955    4.6782 H         1 UNK         0.0813 
    120 H120       30.6214   32.1230    4.9592 H         1 UNK         0.3038 
    121 H121       31.4590   30.1145    5.1556 H         1 UNK         0.0769 
    122 H122       33.6510   29.7407    6.1674 H         1 UNK         0.0811 
    123 H123       34.1853   31.3588    5.7453 H         1 UNK         0.0811 
    124 H124       32.8970   31.1303    6.9282 H         1 UNK         0.0811 
    125 H125       31.3972   31.3095    2.4763 H         1 UNK         0.3204 
    126 H126       33.4688   30.2866    0.8430 H         1 UNK         0.0748 
    127 H127       31.7309   30.4470   -0.9780 H         1 UNK         0.0771 
    128 H128       30.4993   30.7528    0.2370 H         1 UNK         0.0771 
    129 H129       31.8102   31.9050   -0.0045 H         1 UNK         0.0771 
    130 H130       33.8976   28.3117   -0.0057 H         1 UNK         0.2980 
    131 H131       32.7916   26.0522    1.3284 H         1 UNK         0.0545 
    132 H132       30.9499   26.0659   -2.2982 H         1 UNK         0.3459 
    133 H133       32.0131   27.3767   -1.8584 H         1 UNK         0.3459 
    134 H134       34.7318   25.8286   -1.0037 H         1 UNK         0.0616 
    135 H135       35.2680   26.5380    0.4859 H         1 UNK         0.0616 
    136 H136       35.9068   23.9303    2.9180 H         1 UNK         0.0634 
    137 H137       35.5367   25.6120    2.6393 H         1 UNK         0.0634 
@<TRIPOS>BOND
     1    1    2 1    
     2    1   72 1    
     3    1   73 1    
     4    1   74 1    
     5    2    3 2    
     6    2    4 am   BACKBONE|DICT|INTERRES
     7    4    5 1    
     8    4   75 1    
     9    5    6 1    
    10    5   35 1    
    11    5   76 1    
    12    6    7 1    
    13    6   77 1    
    14    6   78 1    
    15    7    8 1    
    16    8    9 1    
    17    8   79 1    
    18    8   80 1    
    19    9   10 ar   
    20    9   14 ar   
    21   10   11 ar   
    22   10   81 1    
    23   11   12 ar   
    24   11   71 1    
    25   12   13 ar   
    26   12   82 1    
    27   13   14 ar   
    28   13   15 1    
    29   14   83 1    
    30   15   16 1    
    31   15   84 1    
    32   15   85 1    
    33   16   17 1    
    34   17   18 1    
    35   17   86 1    
    36   17   87 1    
    37   18   19 1    
    38   18   37 1    
    39   18   88 1    
    40   19   20 am   BACKBONE|DICT|INTERRES
    41   19   89 1    
    42   20   21 2    
    43   20   22 1    
    44   22   23 1    
    45   22   24 1    
    46   22   90 1    
    47   23   91 1    
    48   23   92 1    
    49   23   93 1    
    50   24   25 am   BACKBONE|DICT|INTERRES
    51   24   94 1    
    52   25   26 2    
    53   25   27 1    
    54   27   28 1    
    55   27   29 1    
    56   27   95 1    
    57   28   96 1    
    58   28   97 1    
    59   28   98 1    
    60   29   30 am   BACKBONE|DICT|INTERRES
    61   29   99 1    
    62   30   31 2    
    63   30   32 1    
    64   32   33 1    
    65   32   34 1    
    66   32  100 1    
    67   33  101 1    
    68   33  102 1    
    69   33  103 1    
    70   34   35 am   BACKBONE|DICT|INTERRES
    71   34  104 1    
    72   35   36 2    
    73   37   38 2    
    74   37   39 am   BACKBONE|DICT|INTERRES
    75   39   40 1    
    76   39  105 1    
    77   40   41 1    
    78   40   42 1    
    79   40  106 1    
    80   41  107 1    
    81   41  108 1    
    82   41  109 1    
    83   42   43 2    
    84   42   44 am   BACKBONE|DICT|INTERRES
    85   44   45 1    
    86   44  110 1    
    87   45   46 1    
    88   45   47 1    
    89   45  111 1    
    90   46  112 1    
    91   46  113 1    
    92   46  114 1    
    93   47   48 2    
    94   47   49 am   BACKBONE|DICT|INTERRES
    95   49   50 1    
    96   49  115 1    
    97   50   51 1    
    98   50   52 1    
    99   50  116 1    
   100   51  117 1    
   101   51  118 1    
   102   51  119 1    
   103   52   53 2    
   104   52   54 am   BACKBONE|DICT|INTERRES
   105   54   55 1    
   106   54  120 1    
   107   55   56 1    
   108   55   57 1    
   109   55  121 1    
   110   56  122 1    
   111   56  123 1    
   112   56  124 1    
   113   57   58 2    
   114   57   59 am   BACKBONE|DICT|INTERRES
   115   59   60 1    
   116   59  125 1    
   117   60   61 1    
   118   60   62 1    
   119   60  126 1    
   120   61  127 1    
   121   61  128 1    
   122   61  129 1    
   123   62   63 2    
   124   62   64 am   BACKBONE|DICT|INTERRES
   125   64   65 1    
   126   64  130 1    
   127   65   66 1    
   128   65   69 1    
   129   65  131 1    
   130   66   67 am   BACKBONE|DICT|INTERRES
   131   66   68 2    
   132   67  132 1    
   133   67  133 1    
   134   69   70 1    
   135   69  134 1    
   136   69  135 1    
   137   70   71 1    
   138   71  136 1    
   139   71  137 1    
@<TRIPOS>SUBSTRUCTURE
     1 UNK         1 GROUP             0       ****    0 ROOT    
