@<TRIPOS>MOLECULE
3R136
137   139    1
SMALL
USER_CHARGES


@<TRIPOS>ATOM
      1 CA         29.9355   22.6193   -3.6496 C.3       0 UNK        -0.1979 
      2 C          29.3868   23.1329   -2.3282 C.2       0 UNK         0.4864 
      3 O          28.8549   24.2438   -2.2817 O.2       0 UNK        -0.5359 
      4 N          29.4974   22.3274   -1.2601 N.am      1 UNK        -0.4318 
      5 CA         29.0957   22.6416    0.1209 C.3       1 UNK         0.0824 
      6 C6         29.3252   21.4512    1.0848 C.3       12 UNK        -0.0944 
      7 S7         31.0626   20.8963    1.1105 S.3       12 UNK        -0.2672 
      8 C8         31.5598   21.2740    2.8246 C.3       12 UNK         0.0333 
      9 C9         31.5752   22.7685    3.1238 C.ar      12 UNK        -0.0807 
     10 C10        32.3729   23.6304    2.3647 C.ar      12 UNK        -0.0894 
     11 C11        32.4152   25.0010    2.6356 C.ar      12 UNK        -0.0804 
     12 C12        31.6395   25.5031    3.6897 C.ar      12 UNK        -0.0824 
     13 C13        30.8490   24.6534    4.4699 C.ar      12 UNK        -0.0762 
     14 C14        30.8216   23.2854    4.1826 C.ar      12 UNK        -0.0782 
     15 C15        30.0618   25.2234    5.6463 C.3       12 UNK         0.0230 
     16 S16        28.2575   24.9416    5.5670 S.3       12 UNK        -0.2608 
     17 C17        27.8275   25.2409    3.8189 C.3       12 UNK        -0.0989 
     18 CA         28.1520   26.6570    3.2782 C.3       5 UNK         0.0716 
     19 N          28.4159   26.6190    1.8346 N.am      5 UNK        -0.4135 
     20 C          29.0536   27.5830    1.1564 C.2       4 UNK         0.5031 
     21 O          29.4359   28.6310    1.6741 O.2       4 UNK        -0.5229 
     22 CA         29.2672   27.3771   -0.3517 C.3       4 UNK         0.0329 
     23 CB         30.5829   26.6335   -0.6170 C.3       4 UNK        -0.2001 
     24 N          28.1722   26.6865   -1.0362 N.am      4 UNK        -0.4303 
     25 C          26.9329   27.1781   -1.1772 C.2       3 UNK         0.5044 
     26 O          26.5359   28.1984   -0.6158 O.2       3 UNK        -0.5152 
     27 CA         25.9816   26.4093   -2.1048 C.3       3 UNK         0.0319 
     28 CB         26.3884   26.5931   -3.5766 C.3       3 UNK        -0.2001 
     29 N          25.9806   24.9868   -1.7743 N.am      3 UNK        -0.4354 
     30 C          25.0538   24.3860   -1.0153 C.2       2 UNK         0.4964 
     31 O          24.0309   24.9402   -0.6110 O.2       2 UNK        -0.5047 
     32 CA         25.3103   22.9187   -0.6183 C.3       2 UNK         0.0288 
     33 CB         24.5888   21.9666   -1.5860 C.3       2 UNK        -0.2113 
     34 N          26.7279   22.5478   -0.5471 N.am      2 UNK        -0.4145 
     35 C          27.6413   23.1367    0.2400 C.2       1 UNK         0.5006 
     36 O          27.3869   24.0721    0.9967 O.2       1 UNK        -0.5103 
     37 C          27.0968   27.7142    3.6790 C.2       5 UNK         0.5055 
     38 O          27.0168   28.0669    4.8558 O.2       5 UNK        -0.5220 
     39 N          26.3444   28.2585    2.7082 N.am      6 UNK        -0.4450 
     40 CA         25.4746   29.4232    2.9058 C.3       6 UNK         0.0367 
     41 CB         24.4979   29.5430    1.7253 C.3       6 UNK        -0.1929 
     42 C          26.2625   30.7369    3.0918 C.2       6 UNK         0.5070 
     43 O          25.6991   31.7026    3.6069 O.2       6 UNK        -0.5237 
     44 N          27.5404   30.7537    2.6888 N.am      7 UNK        -0.4739 
     45 CA         28.4765   31.8645    2.8495 C.3       7 UNK         0.0276 
     46 CB         28.7370   32.5068    1.4740 C.3       7 UNK        -0.1927 
     47 C          29.7613   31.3461    3.5160 C.2       7 UNK         0.5013 
     48 O          30.8617   31.6669    3.0636 O.2       7 UNK        -0.5193 
     49 N          29.5939   30.5468    4.5833 N.am      8 UNK        -0.4253 
     50 CA         30.6366   29.7938    5.2969 C.3       8 UNK         0.0242 
     51 CB         30.0146   29.1047    6.5219 C.3       8 UNK        -0.2000 
     52 C          31.8777   30.5950    5.7290 C.2       8 UNK         0.4948 
     53 O          32.9565   30.0122    5.8266 O.2       8 UNK        -0.5275 
     54 N          31.7274   31.9106    5.9383 N.am      9 UNK        -0.4246 
     55 CA         32.8209   32.8502    6.2037 C.3       9 UNK         0.0261 
     56 CB         32.2369   34.2472    6.4678 C.3       9 UNK        -0.1959 
     57 C          33.8779   32.9118    5.0825 C.2       9 UNK         0.5033 
     58 O          35.0463   33.1648    5.3793 O.2       9 UNK        -0.5390 
     59 N          33.4736   32.6497    3.8295 N.am      10 UNK        -0.4215 
     60 CA         34.3747   32.5561    2.6770 C.3       10 UNK         0.0240 
     61 CB         33.5576   32.6839    1.3808 C.3       10 UNK        -0.1982 
     62 C          35.2036   31.2579    2.6616 C.2       10 UNK         0.4970 
     63 O          36.2495   31.2276    2.0118 O.2       10 UNK        -0.4916 
     64 N          34.7330   30.2198    3.3644 N.am      11 UNK        -0.4279 
     65 CA         35.3983   28.9156    3.4995 C.3       11 UNK         0.1003 
     66 C          36.4343   28.8637    4.6605 C.2       11 UNK         0.5709 
     67 N          36.6052   29.9131    5.4575 N.am      11 UNK        -0.7358 
     68 O          37.1158   27.8552    4.8297 O.2       11 UNK        -0.4999 
     69 C69        34.3623   27.7639    3.6016 C.3       12 UNK        -0.0954 
     70 S70        33.2935   27.6693    2.1234 S.3       12 UNK        -0.2268 
     71 C71        33.3192   25.8777    1.7632 C.3       12 UNK         0.0203 
     72 H72        30.3705   21.6248   -3.5525 H         1 UNK         0.0888 
     73 H73        29.1396   22.5721   -4.3922 H         1 UNK         0.0888 
     74 H74        30.7075   23.2934   -4.0196 H         1 UNK         0.0888 
     75 H75        29.9549   21.4332   -1.3707 H         1 UNK         0.3017 
     76 H76        29.7326   23.4646    0.4511 H         1 UNK         0.0873 
     77 H77        29.0213   21.7168    2.0997 H         1 UNK         0.0745 
     78 H78        28.7052   20.5994    0.7984 H         1 UNK         0.0745 
     79 H79        32.5602   20.8738    2.9940 H         1 UNK         0.0705 
     80 H80        30.8979   20.7428    3.5106 H         1 UNK         0.0705 
     81 H81        32.9665   23.2272    1.5552 H         1 UNK         0.1334 
     82 H82        31.6525   26.5570    3.9236 H         1 UNK         0.1417 
     83 H83        30.2143   22.6269    4.7890 H         1 UNK         0.1562 
     84 H84        30.2382   26.2947    5.7400 H         1 UNK         0.0748 
     85 H85        30.4403   24.7800    6.5682 H         1 UNK         0.0748 
     86 H86        26.7753   24.9949    3.6630 H         1 UNK         0.0940 
     87 H87        28.3821   24.4918    3.2544 H         1 UNK         0.0940 
     88 H88        29.0830   26.9888    3.7395 H         1 UNK         0.0703 
     89 H89        28.0916   25.7883    1.3446 H         1 UNK         0.3081 
     90 H90        29.3497   28.3685   -0.8023 H         1 UNK         0.0719 
     91 H91        30.5983   25.6531   -0.1404 H         1 UNK         0.0809 
     92 H92        30.7539   26.4911   -1.6842 H         1 UNK         0.0809 
     93 H93        31.4261   27.2052   -0.2300 H         1 UNK         0.0809 
     94 H94        28.4159   25.8253   -1.5233 H         1 UNK         0.2990 
     95 H95        24.9812   26.8297   -1.9811 H         1 UNK         0.0690 
     96 H96        27.3775   26.1813   -3.7823 H         1 UNK         0.0788 
     97 H97        26.4115   27.6501   -3.8457 H         1 UNK         0.0788 
     98 H98        25.6791   26.1043   -4.2445 H         1 UNK         0.0788 
     99 H99        26.8139   24.4672   -2.0281 H         1 UNK         0.2993 
    100 H100       24.8886   22.7803    0.3796 H         1 UNK         0.0949 
    101 H101       24.9914   22.0383   -2.5973 H         1 UNK         0.0767 
    102 H102       24.6744   20.9293   -1.2614 H         1 UNK         0.0767 
    103 H103       23.5242   22.1993   -1.6416 H         1 UNK         0.0767 
    104 H104       27.0337   21.8017   -1.1549 H         1 UNK         0.3013 
    105 H105       26.4724   27.9466    1.7536 H         1 UNK         0.3121 
    106 H106       24.8887   29.2606    3.8131 H         1 UNK         0.0774 
    107 H107       23.7651   30.3299    1.9081 H         1 UNK         0.0815 
    108 H108       25.0135   29.7935    0.7981 H         1 UNK         0.0815 
    109 H109       23.9459   28.6166    1.5656 H         1 UNK         0.0815 
    110 H110       27.9487   29.9081    2.3003 H         1 UNK         0.2987 
    111 H111       28.0621   32.6254    3.5141 H         1 UNK         0.0949 
    112 H112       29.1923   31.7972    0.7815 H         1 UNK         0.0806 
    113 H113       27.8124   32.8686    1.0243 H         1 UNK         0.0806 
    114 H114       29.4114   33.3598    1.5601 H         1 UNK         0.0806 
    115 H115       28.6432   30.3491    4.8631 H         1 UNK         0.3010 
    116 H116       30.9855   29.0212    4.6083 H         1 UNK         0.0829 
    117 H117       30.7579   28.5134    7.0589 H         1 UNK         0.0813 
    118 H118       29.6050   29.8296    7.2264 H         1 UNK         0.0813 
    119 H119       29.2116   28.4264    6.2374 H         1 UNK         0.0813 
    120 H120       30.8038   32.3040    5.8327 H         1 UNK         0.3038 
    121 H121       33.3285   32.5130    7.1099 H         1 UNK         0.0769 
    122 H122       33.0278   34.9639    6.6937 H         1 UNK         0.0811 
    123 H123       31.5568   34.2398    7.3198 H         1 UNK         0.0811 
    124 H124       31.6907   34.6268    5.6032 H         1 UNK         0.0811 
    125 H125       32.4979   32.4094    3.6591 H         1 UNK         0.3204 
    126 H126       35.0750   33.3931    2.7201 H         1 UNK         0.0748 
    127 H127       34.2108   32.6934    0.5072 H         1 UNK         0.0771 
    128 H128       32.8633   31.8513    1.2582 H         1 UNK         0.0771 
    129 H129       32.9791   33.6077    1.3639 H         1 UNK         0.0771 
    130 H130       33.8964   30.3351    3.9218 H         1 UNK         0.2980 
    131 H131       35.9800   28.7372    2.5933 H         1 UNK         0.0545 
    132 H132       36.0531   30.7478    5.3324 H         1 UNK         0.3459 
    133 H133       37.2855   29.8634    6.1990 H         1 UNK         0.3459 
    134 H134       34.8702   26.8067    3.7306 H         1 UNK         0.0616 
    135 H135       33.7294   27.8878    4.4807 H         1 UNK         0.0616 
    136 H136       34.3461   25.5169    1.8346 H         1 UNK         0.0634 
    137 H137       33.0289   25.7407    0.7218 H         1 UNK         0.0634 
@<TRIPOS>BOND
     1    1    2 1    
     2    1   72 1    
     3    1   73 1    
     4    1   74 1    
     5    2    3 2    
     6    2    4 am   BACKBONE|DICT|INTERRES
     7    4    5 1    
     8    4   75 1    
     9    5    6 1    
    10    5   35 1    
    11    5   76 1    
    12    6    7 1    
    13    6   77 1    
    14    6   78 1    
    15    7    8 1    
    16    8    9 1    
    17    8   79 1    
    18    8   80 1    
    19    9   10 ar   
    20    9   14 ar   
    21   10   11 ar   
    22   10   81 1    
    23   11   12 ar   
    24   11   71 1    
    25   12   13 ar   
    26   12   82 1    
    27   13   14 ar   
    28   13   15 1    
    29   14   83 1    
    30   15   16 1    
    31   15   84 1    
    32   15   85 1    
    33   16   17 1    
    34   17   18 1    
    35   17   86 1    
    36   17   87 1    
    37   18   19 1    
    38   18   37 1    
    39   18   88 1    
    40   19   20 am   BACKBONE|DICT|INTERRES
    41   19   89 1    
    42   20   21 2    
    43   20   22 1    
    44   22   23 1    
    45   22   24 1    
    46   22   90 1    
    47   23   91 1    
    48   23   92 1    
    49   23   93 1    
    50   24   25 am   BACKBONE|DICT|INTERRES
    51   24   94 1    
    52   25   26 2    
    53   25   27 1    
    54   27   28 1    
    55   27   29 1    
    56   27   95 1    
    57   28   96 1    
    58   28   97 1    
    59   28   98 1    
    60   29   30 am   BACKBONE|DICT|INTERRES
    61   29   99 1    
    62   30   31 2    
    63   30   32 1    
    64   32   33 1    
    65   32   34 1    
    66   32  100 1    
    67   33  101 1    
    68   33  102 1    
    69   33  103 1    
    70   34   35 am   BACKBONE|DICT|INTERRES
    71   34  104 1    
    72   35   36 2    
    73   37   38 2    
    74   37   39 am   BACKBONE|DICT|INTERRES
    75   39   40 1    
    76   39  105 1    
    77   40   41 1    
    78   40   42 1    
    79   40  106 1    
    80   41  107 1    
    81   41  108 1    
    82   41  109 1    
    83   42   43 2    
    84   42   44 am   BACKBONE|DICT|INTERRES
    85   44   45 1    
    86   44  110 1    
    87   45   46 1    
    88   45   47 1    
    89   45  111 1    
    90   46  112 1    
    91   46  113 1    
    92   46  114 1    
    93   47   48 2    
    94   47   49 am   BACKBONE|DICT|INTERRES
    95   49   50 1    
    96   49  115 1    
    97   50   51 1    
    98   50   52 1    
    99   50  116 1    
   100   51  117 1    
   101   51  118 1    
   102   51  119 1    
   103   52   53 2    
   104   52   54 am   BACKBONE|DICT|INTERRES
   105   54   55 1    
   106   54  120 1    
   107   55   56 1    
   108   55   57 1    
   109   55  121 1    
   110   56  122 1    
   111   56  123 1    
   112   56  124 1    
   113   57   58 2    
   114   57   59 am   BACKBONE|DICT|INTERRES
   115   59   60 1    
   116   59  125 1    
   117   60   61 1    
   118   60   62 1    
   119   60  126 1    
   120   61  127 1    
   121   61  128 1    
   122   61  129 1    
   123   62   63 2    
   124   62   64 am   BACKBONE|DICT|INTERRES
   125   64   65 1    
   126   64  130 1    
   127   65   66 1    
   128   65   69 1    
   129   65  131 1    
   130   66   67 am   BACKBONE|DICT|INTERRES
   131   66   68 2    
   132   67  132 1    
   133   67  133 1    
   134   69   70 1    
   135   69  134 1    
   136   69  135 1    
   137   70   71 1    
   138   71  136 1    
   139   71  137 1    
@<TRIPOS>SUBSTRUCTURE
     1 UNK         1 GROUP             0       ****    0 ROOT    
