@<TRIPOS>MOLECULE
3R136
137   139    1
SMALL
USER_CHARGES


@<TRIPOS>ATOM
      1 CA         29.1283   17.8090   -1.3916 C.3       0 UNK        -0.1979 
      2 C          28.9113   19.3104   -1.2793 C.2       0 UNK         0.4864 
      3 O          29.0523   20.0272   -2.2721 O.2       0 UNK        -0.5359 
      4 N          28.5557   19.7973   -0.0825 N.am      1 UNK        -0.4318 
      5 CA         28.3013   21.2102    0.2259 C.3       1 UNK         0.0824 
      6 C6         28.5269   21.4953    1.7352 C.3       12 UNK        -0.0944 
      7 S7         28.9147   23.2461    2.0740 S.3       12 UNK        -0.2672 
      8 C8         30.0831   23.0662    3.4564 C.3       12 UNK         0.0333 
      9 C9         30.4046   24.4159    4.0761 C.ar      12 UNK        -0.0807 
     10 C10        31.5630   25.1086    3.7101 C.ar      12 UNK        -0.0894 
     11 C11        31.8479   26.3557    4.2745 C.ar      12 UNK        -0.0804 
     12 C12        30.9675   26.9071    5.2094 C.ar      12 UNK        -0.0824 
     13 C13        29.7985   26.2318    5.5698 C.ar      12 UNK        -0.0762 
     14 C14        29.5316   24.9778    5.0120 C.ar      12 UNK        -0.0782 
     15 C15        28.8072   26.8699    6.5326 C.3       12 UNK         0.0230 
     16 S16        27.1922   27.1684    5.7395 S.3       12 UNK        -0.2608 
     17 C17        27.5532   28.5482    4.5947 C.3       12 UNK        -0.0989 
     18 CA         28.1706   28.1166    3.2308 C.3       5 UNK         0.0716 
     19 N          27.4682   27.0005    2.5881 N.am      5 UNK        -0.4135 
     20 C          26.2103   26.9927    2.1304 C.2       4 UNK         0.5031 
     21 O          25.4521   27.9646    2.1435 O.2       4 UNK        -0.5229 
     22 CA         25.7352   25.6595    1.5288 C.3       4 UNK         0.0329 
     23 CB         24.3424   25.2729    2.0542 C.3       4 UNK        -0.2001 
     24 N          25.7123   25.6539    0.0642 N.am      4 UNK        -0.4303 
     25 C          26.7104   25.9939   -0.7638 C.2       3 UNK         0.5044 
     26 O          27.7910   26.4606   -0.3965 O.2       3 UNK        -0.5152 
     27 CA         26.4667   25.6864   -2.2532 C.3       3 UNK         0.0319 
     28 CB         27.5683   26.2407   -3.1753 C.3       3 UNK        -0.2001 
     29 N          26.3910   24.2375   -2.4358 N.am      3 UNK        -0.4354 
     30 C          25.2873   23.4944   -2.2780 C.2       2 UNK         0.4964 
     31 O          24.1696   23.9650   -2.0637 O.2       2 UNK        -0.5047 
     32 CA         25.4815   21.9699   -2.3048 C.3       2 UNK         0.0288 
     33 CB         25.5058   21.4445   -3.7492 C.3       2 UNK        -0.2113 
     34 N          26.7045   21.5558   -1.6102 N.am      2 UNK        -0.4145 
     35 C          26.9096   21.6533   -0.2884 C.2       1 UNK         0.5006 
     36 O          26.0465   22.0449    0.5000 O.2       1 UNK        -0.5103 
     37 C          28.4233   29.3205    2.2932 C.2       5 UNK         0.5055 
     38 O          28.6880   30.4200    2.7861 O.2       5 UNK        -0.5220 
     39 N          28.3714   29.1047    0.9674 N.am      6 UNK        -0.4450 
     40 CA         28.4797   30.1518   -0.0563 C.3       6 UNK         0.0367 
     41 CB         28.1559   29.5587   -1.4340 C.3       6 UNK        -0.1929 
     42 C          29.8367   30.8740   -0.0960 C.2       6 UNK         0.5070 
     43 O          29.8880   32.0312   -0.5139 O.2       6 UNK        -0.5237 
     44 N          30.9057   30.2145    0.3710 N.am      7 UNK        -0.4739 
     45 CA         32.2608   30.7639    0.5014 C.3       7 UNK         0.0276 
     46 CB         33.2655   29.5986    0.5283 C.3       7 UNK        -0.1927 
     47 C          32.4027   31.7133    1.7125 C.2       7 UNK         0.5013 
     48 O          33.3177   31.5539    2.5246 O.2       7 UNK        -0.5193 
     49 N          31.4703   32.6718    1.8162 N.am      8 UNK        -0.4253 
     50 CA         31.3486   33.7262    2.8302 C.3       8 UNK         0.0242 
     51 CB         32.4734   34.7668    2.6424 C.3       8 UNK        -0.2000 
     52 C          31.2721   33.2073    4.2805 C.2       8 UNK         0.4948 
     53 O          31.7185   33.9054    5.1926 O.2       8 UNK        -0.5275 
     54 N          30.7568   31.9822    4.4745 N.am      9 UNK        -0.4246 
     55 CA         30.6597   31.2027    5.7219 C.3       9 UNK         0.0261 
     56 CB         29.6862   31.8654    6.7139 C.3       9 UNK        -0.1959 
     57 C          31.9968   30.8514    6.4113 C.2       9 UNK         0.5033 
     58 O          32.0864   29.7916    7.0298 O.2       9 UNK        -0.5390 
     59 N          33.0088   31.7163    6.2905 N.am      10 UNK        -0.4215 
     60 CA         34.3701   31.5369    6.7974 C.3       10 UNK         0.0240 
     61 CB         35.0542   32.9134    6.8552 C.3       10 UNK        -0.1982 
     62 C          35.2187   30.5510    5.9716 C.2       10 UNK         0.4970 
     63 O          36.2942   30.1705    6.4363 O.2       10 UNK        -0.4916 
     64 N          34.7440   30.1747    4.7761 N.am      11 UNK        -0.4279 
     65 CA         35.4334   29.3242    3.7937 C.3       11 UNK         0.1003 
     66 C          36.6139   30.0665    3.1088 C.2       11 UNK         0.5709 
     67 N          36.3929   31.2964    2.6602 N.am      11 UNK        -0.7358 
     68 O          37.7170   29.5419    2.9728 O.2       11 UNK        -0.4999 
     69 C69        35.7860   27.8947    4.3072 C.3       12 UNK        -0.0954 
     70 S70        34.4091   26.9853    5.0947 S.3       12 UNK        -0.2268 
     71 C71        33.0864   27.1291    3.8553 C.3       12 UNK         0.0203 
     72 H72        28.4394   17.3842   -2.1213 H         1 UNK         0.0888 
     73 H73        30.1457   17.6014   -1.7217 H         1 UNK         0.0888 
     74 H74        28.9704   17.3016   -0.4401 H         1 UNK         0.0888 
     75 H75        28.4196   19.1550    0.6856 H         1 UNK         0.3017 
     76 H76        29.0373   21.7978   -0.3281 H         1 UNK         0.0873 
     77 H77        29.3695   20.8999    2.0915 H         1 UNK         0.0745 
     78 H78        27.6733   21.1861    2.3415 H         1 UNK         0.0745 
     79 H79        29.6535   22.4079    4.2135 H         1 UNK         0.0705 
     80 H80        30.9937   22.5803    3.1022 H         1 UNK         0.0705 
     81 H81        32.2375   24.6808    2.9808 H         1 UNK         0.1334 
     82 H82        31.1850   27.8740    5.6384 H         1 UNK         0.1417 
     83 H83        28.6260   24.4525    5.2850 H         1 UNK         0.1562 
     84 H84        29.1934   27.8076    6.9362 H         1 UNK         0.0748 
     85 H85        28.6640   26.2040    7.3846 H         1 UNK         0.0748 
     86 H86        28.2010   29.2578    5.1085 H         1 UNK         0.0940 
     87 H87        26.6158   29.0804    4.4229 H         1 UNK         0.0940 
     88 H88        29.1693   27.7348    3.4243 H         1 UNK         0.0703 
     89 H89        28.0120   26.1542    2.4876 H         1 UNK         0.3081 
     90 H90        26.4270   24.8744    1.8384 H         1 UNK         0.0719 
     91 H91        23.5750   25.9713    1.7180 H         1 UNK         0.0809 
     92 H92        24.0583   24.2738    1.7223 H         1 UNK         0.0809 
     93 H93        24.3251   25.2683    3.1450 H         1 UNK         0.0809 
     94 H94        24.8839   25.2575   -0.3616 H         1 UNK         0.2990 
     95 H95        25.5205   26.1474   -2.5451 H         1 UNK         0.0690 
     96 H96        27.3911   25.9620   -4.2142 H         1 UNK         0.0788 
     97 H97        28.5579   25.8764   -2.8961 H         1 UNK         0.0788 
     98 H98        27.5947   27.3288   -3.1392 H         1 UNK         0.0788 
     99 H99        27.2692   23.7587   -2.5737 H         1 UNK         0.2993 
    100 H100       24.6305   21.5192   -1.7892 H         1 UNK         0.0949 
    101 H101       24.5971   21.7277   -4.2824 H         1 UNK         0.0767 
    102 H102       26.3522   21.8412   -4.3115 H         1 UNK         0.0767 
    103 H103       25.5686   20.3563   -3.7731 H         1 UNK         0.0767 
    104 H104       27.4560   21.1620   -2.1703 H         1 UNK         0.3013 
    105 H105       28.1738   28.1652    0.6329 H         1 UNK         0.3121 
    106 H106       27.7242   30.9065    0.1722 H         1 UNK         0.0774 
    107 H107       28.1988   30.3230   -2.2113 H         1 UNK         0.0815 
    108 H108       28.8644   28.7754   -1.7058 H         1 UNK         0.0815 
    109 H109       27.1526   29.1332   -1.4551 H         1 UNK         0.0815 
    110 H110       30.7626   29.2758    0.7138 H         1 UNK         0.2987 
    111 H111       32.4792   31.3630   -0.3855 H         1 UNK         0.0949 
    112 H112       33.0716   28.9217    1.3593 H         1 UNK         0.0806 
    113 H113       33.2174   29.0163   -0.3920 H         1 UNK         0.0806 
    114 H114       34.2899   29.9615    0.6227 H         1 UNK         0.0806 
    115 H115       30.7641   32.6818    1.0846 H         1 UNK         0.3010 
    116 H116       30.3973   34.2250    2.6398 H         1 UNK         0.0829 
    117 H117       32.5021   35.1400    1.6187 H         1 UNK         0.0813 
    118 H118       32.3267   35.6291    3.2939 H         1 UNK         0.0813 
    119 H119       33.4529   34.3463    2.8736 H         1 UNK         0.0813 
    120 H120       30.3831   31.5102    3.6580 H         1 UNK         0.3038 
    121 H121       30.2266   30.2485    5.4238 H         1 UNK         0.0769 
    122 H122       28.7046   32.0143    6.2639 H         1 UNK         0.0811 
    123 H123       30.0503   32.8348    7.0553 H         1 UNK         0.0811 
    124 H124       29.5459   31.2416    7.5978 H         1 UNK         0.0811 
    125 H125       32.7973   32.5972    5.8243 H         1 UNK         0.3204 
    126 H126       34.3073   31.1396    7.8126 H         1 UNK         0.0748 
    127 H127       34.5008   33.6051    7.4907 H         1 UNK         0.0771 
    128 H128       36.0621   32.8347    7.2653 H         1 UNK         0.0771 
    129 H129       35.1384   33.3622    5.8644 H         1 UNK         0.0771 
    130 H130       33.8965   30.6112    4.4381 H         1 UNK         0.2980 
    131 H131       34.7226   29.1880    2.9831 H         1 UNK         0.0545 
    132 H132       37.1368   31.8060    2.2110 H         1 UNK         0.3459 
    133 H133       35.4631   31.6922    2.7214 H         1 UNK         0.3459 
    134 H134       36.1504   27.2841    3.4794 H         1 UNK         0.0616 
    135 H135       36.6057   27.9398    5.0255 H         1 UNK         0.0616 
    136 H136       32.8144   28.1775    3.7296 H         1 UNK         0.0634 
    137 H137       33.4529   26.7776    2.8896 H         1 UNK         0.0634 
@<TRIPOS>BOND
     1    1    2 1    
     2    1   72 1    
     3    1   73 1    
     4    1   74 1    
     5    2    3 2    
     6    2    4 am   BACKBONE|DICT|INTERRES
     7    4    5 1    
     8    4   75 1    
     9    5    6 1    
    10    5   35 1    
    11    5   76 1    
    12    6    7 1    
    13    6   77 1    
    14    6   78 1    
    15    7    8 1    
    16    8    9 1    
    17    8   79 1    
    18    8   80 1    
    19    9   10 ar   
    20    9   14 ar   
    21   10   11 ar   
    22   10   81 1    
    23   11   12 ar   
    24   11   71 1    
    25   12   13 ar   
    26   12   82 1    
    27   13   14 ar   
    28   13   15 1    
    29   14   83 1    
    30   15   16 1    
    31   15   84 1    
    32   15   85 1    
    33   16   17 1    
    34   17   18 1    
    35   17   86 1    
    36   17   87 1    
    37   18   19 1    
    38   18   37 1    
    39   18   88 1    
    40   19   20 am   BACKBONE|DICT|INTERRES
    41   19   89 1    
    42   20   21 2    
    43   20   22 1    
    44   22   23 1    
    45   22   24 1    
    46   22   90 1    
    47   23   91 1    
    48   23   92 1    
    49   23   93 1    
    50   24   25 am   BACKBONE|DICT|INTERRES
    51   24   94 1    
    52   25   26 2    
    53   25   27 1    
    54   27   28 1    
    55   27   29 1    
    56   27   95 1    
    57   28   96 1    
    58   28   97 1    
    59   28   98 1    
    60   29   30 am   BACKBONE|DICT|INTERRES
    61   29   99 1    
    62   30   31 2    
    63   30   32 1    
    64   32   33 1    
    65   32   34 1    
    66   32  100 1    
    67   33  101 1    
    68   33  102 1    
    69   33  103 1    
    70   34   35 am   BACKBONE|DICT|INTERRES
    71   34  104 1    
    72   35   36 2    
    73   37   38 2    
    74   37   39 am   BACKBONE|DICT|INTERRES
    75   39   40 1    
    76   39  105 1    
    77   40   41 1    
    78   40   42 1    
    79   40  106 1    
    80   41  107 1    
    81   41  108 1    
    82   41  109 1    
    83   42   43 2    
    84   42   44 am   BACKBONE|DICT|INTERRES
    85   44   45 1    
    86   44  110 1    
    87   45   46 1    
    88   45   47 1    
    89   45  111 1    
    90   46  112 1    
    91   46  113 1    
    92   46  114 1    
    93   47   48 2    
    94   47   49 am   BACKBONE|DICT|INTERRES
    95   49   50 1    
    96   49  115 1    
    97   50   51 1    
    98   50   52 1    
    99   50  116 1    
   100   51  117 1    
   101   51  118 1    
   102   51  119 1    
   103   52   53 2    
   104   52   54 am   BACKBONE|DICT|INTERRES
   105   54   55 1    
   106   54  120 1    
   107   55   56 1    
   108   55   57 1    
   109   55  121 1    
   110   56  122 1    
   111   56  123 1    
   112   56  124 1    
   113   57   58 2    
   114   57   59 am   BACKBONE|DICT|INTERRES
   115   59   60 1    
   116   59  125 1    
   117   60   61 1    
   118   60   62 1    
   119   60  126 1    
   120   61  127 1    
   121   61  128 1    
   122   61  129 1    
   123   62   63 2    
   124   62   64 am   BACKBONE|DICT|INTERRES
   125   64   65 1    
   126   64  130 1    
   127   65   66 1    
   128   65   69 1    
   129   65  131 1    
   130   66   67 am   BACKBONE|DICT|INTERRES
   131   66   68 2    
   132   67  132 1    
   133   67  133 1    
   134   69   70 1    
   135   69  134 1    
   136   69  135 1    
   137   70   71 1    
   138   71  136 1    
   139   71  137 1    
@<TRIPOS>SUBSTRUCTURE
     1 UNK         1 GROUP             0       ****    0 ROOT    
