@<TRIPOS>MOLECULE
3R136
137   139    1
SMALL
USER_CHARGES


@<TRIPOS>ATOM
      1 CA         29.6225   22.5422   -2.6628 C.3       0 UNK        -0.1979 
      2 C          29.7373   24.0106   -3.0467 C.2       0 UNK         0.4864 
      3 O          29.4220   24.3748   -4.1807 O.2       0 UNK        -0.5359 
      4 N          30.1859   24.8558   -2.1088 N.am      1 UNK        -0.4318 
      5 CA         30.3157   26.3106   -2.2717 C.3       1 UNK         0.0824 
      6 C6         31.2811   26.9269   -1.2259 C.3       12 UNK        -0.0944 
      7 S7         30.9217   26.4649    0.5093 S.3       12 UNK        -0.2672 
      8 C8         32.2966   25.3200    0.8325 C.3       12 UNK         0.0333 
      9 C9         32.3139   24.8517    2.2784 C.ar      12 UNK        -0.0807 
     10 C10        33.1052   25.5204    3.2175 C.ar      12 UNK        -0.0894 
     11 C11        33.1795   25.0641    4.5365 C.ar      12 UNK        -0.0804 
     12 C12        32.4453   23.9362    4.9136 C.ar      12 UNK        -0.0824 
     13 C13        31.6318   23.2716    3.9907 C.ar      12 UNK        -0.0762 
     14 C14        31.5741   23.7304    2.6705 C.ar      12 UNK        -0.0782 
     15 C15        30.8353   22.0474    4.4276 C.3       12 UNK         0.0230 
     16 S16        29.0308   22.3176    4.4156 S.3       12 UNK        -0.2608 
     17 C17        28.8416   23.8684    5.3632 C.3       12 UNK        -0.0989 
     18 CA         28.2693   24.9899    4.4585 C.3       5 UNK         0.0716 
     19 N          26.8736   24.7138    4.0968 N.am      5 UNK        -0.4135 
     20 C          26.2371   25.1958    3.0246 C.2       4 UNK         0.5031 
     21 O          26.7620   25.9479    2.1986 O.2       4 UNK        -0.5229 
     22 CA         24.7633   24.8000    2.8701 C.3       4 UNK         0.0329 
     23 CB         23.8752   25.5701    3.8637 C.3       4 UNK        -0.2001 
     24 N          24.3497   25.1190    1.5092 N.am      4 UNK        -0.4303 
     25 C          23.5661   24.3763    0.7208 C.2       3 UNK         0.5044 
     26 O          22.9934   23.3523    1.0963 O.2       3 UNK        -0.5152 
     27 CA         23.3822   24.8485   -0.7379 C.3       3 UNK         0.0319 
     28 CB         21.9634   25.4039   -0.9478 C.3       3 UNK        -0.2001 
     29 N          24.3566   25.8582   -1.1738 N.am      3 UNK        -0.4354 
     30 C          25.6676   25.6376   -1.3429 C.2       2 UNK         0.4964 
     31 O          26.1985   24.5327   -1.1938 O.2       2 UNK        -0.5047 
     32 CA         26.5266   26.8537   -1.7225 C.3       2 UNK         0.0288 
     33 CB         26.3192   28.0472   -0.7659 C.3       2 UNK        -0.2113 
     34 N          27.9222   26.4302   -1.7177 N.am      2 UNK        -0.4145 
     35 C          28.9540   27.0413   -2.3091 C.2       1 UNK         0.5006 
     36 O          28.8653   28.1233   -2.8928 O.2       1 UNK        -0.5103 
     37 C          28.4187   26.4004    5.0716 C.2       5 UNK         0.5055 
     38 O          28.8013   26.5359    6.2345 O.2       5 UNK        -0.5220 
     39 N          28.0990   27.4211    4.2712 N.am      6 UNK        -0.4450 
     40 CA         28.2440   28.8445    4.5483 C.3       6 UNK         0.0367 
     41 CB         27.1959   29.3255    5.5698 C.3       6 UNK        -0.1929 
     42 C          28.0899   29.5601    3.2038 C.2       6 UNK         0.5070 
     43 O          27.0479   29.4142    2.5623 O.2       6 UNK        -0.5237 
     44 N          29.1286   30.2836    2.7801 N.am      7 UNK        -0.4739 
     45 CA         29.2359   30.9267    1.4707 C.3       7 UNK         0.0276 
     46 CB         29.4858   29.8569    0.3839 C.3       7 UNK        -0.1927 
     47 C          30.3833   31.9458    1.5188 C.2       7 UNK         0.5013 
     48 O          30.9000   32.2381    2.6014 O.2       7 UNK        -0.5193 
     49 N          30.8093   32.4263    0.3421 N.am      8 UNK        -0.4253 
     50 CA         32.0494   33.1819    0.1391 C.3       8 UNK         0.0242 
     51 CB         31.9629   33.9408   -1.1983 C.3       8 UNK        -0.2000 
     52 C          33.2667   32.2359    0.2082 C.2       8 UNK         0.4948 
     53 O          33.9050   31.9581   -0.8088 O.2       8 UNK        -0.5275 
     54 N          33.5229   31.7221    1.4121 N.am      9 UNK        -0.4246 
     55 CA         34.5377   30.7380    1.7681 C.3       9 UNK         0.0261 
     56 CB         33.9987   29.3220    1.4712 C.3       9 UNK        -0.1959 
     57 C          34.8647   30.9243    3.2574 C.2       9 UNK         0.5033 
     58 O          34.2712   31.7888    3.9089 O.2       9 UNK        -0.5390 
     59 N          35.7712   30.0940    3.7918 N.am      10 UNK        -0.4215 
     60 CA         36.2052   30.1086    5.1981 C.3       10 UNK         0.0240 
     61 CB         37.2798   29.0284    5.4062 C.3       10 UNK        -0.1982 
     62 C          35.0712   29.9382    6.2310 C.2       10 UNK         0.4970 
     63 O          35.1924   30.4475    7.3458 O.2       10 UNK        -0.4916 
     64 N          33.9980   29.2441    5.8356 N.am      11 UNK        -0.4279 
     65 CA         32.7627   29.0704    6.6134 C.3       11 UNK         0.1003 
     66 C          31.7166   30.2035    6.3929 C.2       11 UNK         0.5709 
     67 N          31.9568   31.1923    5.5401 N.am      11 UNK        -0.7358 
     68 O          30.6618   30.1944    7.0218 O.2       11 UNK        -0.4999 
     69 C69        32.1469   27.6680    6.3692 C.3       12 UNK        -0.0954 
     70 S70        33.2005   26.3321    7.0264 S.3       12 UNK        -0.2268 
     71 C71        34.0878   25.7610    5.5412 C.3       12 UNK         0.0203 
     72 H72        30.2093   21.9278   -3.3459 H         1 UNK         0.0888 
     73 H73        29.9774   22.3560   -1.6490 H         1 UNK         0.0888 
     74 H74        28.5826   22.2208   -2.7217 H         1 UNK         0.0888 
     75 H75        30.4197   24.5066   -1.1903 H         1 UNK         0.3017 
     76 H76        30.7640   26.4824   -3.2535 H         1 UNK         0.0873 
     77 H77        31.2878   28.0157   -1.3030 H         1 UNK         0.0745 
     78 H78        32.3013   26.6261   -1.4686 H         1 UNK         0.0745 
     79 H79        32.2241   24.4612    0.1638 H         1 UNK         0.0705 
     80 H80        33.2399   25.8145    0.5938 H         1 UNK         0.0705 
     81 H81        33.6802   26.3838    2.9128 H         1 UNK         0.1334 
     82 H82        32.5074   23.5797    5.9330 H         1 UNK         0.1417 
     83 H83        30.9555   23.2121    1.9504 H         1 UNK         0.1562 
     84 H84        31.1318   21.7321    5.4293 H         1 UNK         0.0748 
     85 H85        31.0705   21.2125    3.7660 H         1 UNK         0.0748 
     86 H86        29.8042   24.1565    5.7875 H         1 UNK         0.0940 
     87 H87        28.1883   23.6873    6.2185 H         1 UNK         0.0940 
     88 H88        28.8644   25.0043    3.5417 H         1 UNK         0.0703 
     89 H89        26.3655   24.1196    4.7351 H         1 UNK         0.3081 
     90 H90        24.6762   23.7258    3.0479 H         1 UNK         0.0719 
     91 H91        24.1430   25.3404    4.8957 H         1 UNK         0.0809 
     92 H92        23.9688   26.6494    3.7338 H         1 UNK         0.0809 
     93 H93        22.8242   25.3089    3.7380 H         1 UNK         0.0809 
     94 H94        24.8517   25.8967    1.1001 H         1 UNK         0.2990 
     95 H95        23.5024   23.9702   -1.3758 H         1 UNK         0.0690 
     96 H96        21.7884   25.6648   -1.9918 H         1 UNK         0.0788 
     97 H97        21.7848   26.2938   -0.3426 H         1 UNK         0.0788 
     98 H98        21.2094   24.6656   -0.6710 H         1 UNK         0.0788 
     99 H99        23.9994   26.7917   -1.3196 H         1 UNK         0.2993 
    100 H100       26.2530   27.1476   -2.7381 H         1 UNK         0.0949 
    101 H101       26.9172   28.9060   -1.0698 H         1 UNK         0.0767 
    102 H102       25.2821   28.3825   -0.7507 H         1 UNK         0.0767 
    103 H103       26.5983   27.7949    0.2578 H         1 UNK         0.0767 
    104 H104       28.0639   25.5179   -1.3010 H         1 UNK         0.3013 
    105 H105       27.7387   27.2014    3.3432 H         1 UNK         0.3121 
    106 H106       29.2446   29.0228    4.9457 H         1 UNK         0.0774 
    107 H107       26.1797   29.1184    5.2320 H         1 UNK         0.0815 
    108 H108       27.2770   30.4013    5.7295 H         1 UNK         0.0815 
    109 H109       27.3326   28.8458    6.5389 H         1 UNK         0.0815 
    110 H110       29.9287   30.4390    3.3820 H         1 UNK         0.2987 
    111 H111       28.3082   31.4630    1.2603 H         1 UNK         0.0949 
    112 H112       30.4924   29.4453    0.4640 H         1 UNK         0.0806 
    113 H113       28.7898   29.0226    0.4604 H         1 UNK         0.0806 
    114 H114       29.3745   30.2664   -0.6205 H         1 UNK         0.0806 
    115 H115       30.3392   32.1171   -0.4962 H         1 UNK         0.3010 
    116 H116       32.1533   33.9196    0.9382 H         1 UNK         0.0829 
    117 H117       32.8699   34.5201   -1.3759 H         1 UNK         0.0813 
    118 H118       31.8385   33.2626   -2.0435 H         1 UNK         0.0813 
    119 H119       31.1269   34.6404   -1.2037 H         1 UNK         0.0813 
    120 H120       32.9558   32.0307    2.1983 H         1 UNK         0.3038 
    121 H121       35.4450   30.9246    1.1900 H         1 UNK         0.0769 
    122 H122       33.7224   29.2155    0.4219 H         1 UNK         0.0811 
    123 H123       33.1138   29.0936    2.0674 H         1 UNK         0.0811 
    124 H124       34.7449   28.5551    1.6798 H         1 UNK         0.0811 
    125 H125       36.2219   29.4191    3.1903 H         1 UNK         0.3204 
    126 H126       36.6609   31.0834    5.3841 H         1 UNK         0.0748 
    127 H127       37.6421   29.0306    6.4354 H         1 UNK         0.0771 
    128 H128       36.8944   28.0291    5.1996 H         1 UNK         0.0771 
    129 H129       38.1435   29.1966    4.7625 H         1 UNK         0.0771 
    130 H130       33.9817   28.8823    4.8957 H         1 UNK         0.2980 
    131 H131       33.0153   29.1290    7.6737 H         1 UNK         0.0545 
    132 H132       31.2641   31.9127    5.4163 H         1 UNK         0.3459 
    133 H133       32.8361   31.2660    5.0377 H         1 UNK         0.3459 
    134 H134       31.9411   27.5060    5.3098 H         1 UNK         0.0616 
    135 H135       31.1866   27.5787    6.8793 H         1 UNK         0.0616 
    136 H136       34.6058   26.6046    5.0842 H         1 UNK         0.0634 
    137 H137       34.8641   25.0605    5.8514 H         1 UNK         0.0634 
@<TRIPOS>BOND
     1    1    2 1    
     2    1   72 1    
     3    1   73 1    
     4    1   74 1    
     5    2    3 2    
     6    2    4 am   BACKBONE|DICT|INTERRES
     7    4    5 1    
     8    4   75 1    
     9    5    6 1    
    10    5   35 1    
    11    5   76 1    
    12    6    7 1    
    13    6   77 1    
    14    6   78 1    
    15    7    8 1    
    16    8    9 1    
    17    8   79 1    
    18    8   80 1    
    19    9   10 ar   
    20    9   14 ar   
    21   10   11 ar   
    22   10   81 1    
    23   11   12 ar   
    24   11   71 1    
    25   12   13 ar   
    26   12   82 1    
    27   13   14 ar   
    28   13   15 1    
    29   14   83 1    
    30   15   16 1    
    31   15   84 1    
    32   15   85 1    
    33   16   17 1    
    34   17   18 1    
    35   17   86 1    
    36   17   87 1    
    37   18   19 1    
    38   18   37 1    
    39   18   88 1    
    40   19   20 am   BACKBONE|DICT|INTERRES
    41   19   89 1    
    42   20   21 2    
    43   20   22 1    
    44   22   23 1    
    45   22   24 1    
    46   22   90 1    
    47   23   91 1    
    48   23   92 1    
    49   23   93 1    
    50   24   25 am   BACKBONE|DICT|INTERRES
    51   24   94 1    
    52   25   26 2    
    53   25   27 1    
    54   27   28 1    
    55   27   29 1    
    56   27   95 1    
    57   28   96 1    
    58   28   97 1    
    59   28   98 1    
    60   29   30 am   BACKBONE|DICT|INTERRES
    61   29   99 1    
    62   30   31 2    
    63   30   32 1    
    64   32   33 1    
    65   32   34 1    
    66   32  100 1    
    67   33  101 1    
    68   33  102 1    
    69   33  103 1    
    70   34   35 am   BACKBONE|DICT|INTERRES
    71   34  104 1    
    72   35   36 2    
    73   37   38 2    
    74   37   39 am   BACKBONE|DICT|INTERRES
    75   39   40 1    
    76   39  105 1    
    77   40   41 1    
    78   40   42 1    
    79   40  106 1    
    80   41  107 1    
    81   41  108 1    
    82   41  109 1    
    83   42   43 2    
    84   42   44 am   BACKBONE|DICT|INTERRES
    85   44   45 1    
    86   44  110 1    
    87   45   46 1    
    88   45   47 1    
    89   45  111 1    
    90   46  112 1    
    91   46  113 1    
    92   46  114 1    
    93   47   48 2    
    94   47   49 am   BACKBONE|DICT|INTERRES
    95   49   50 1    
    96   49  115 1    
    97   50   51 1    
    98   50   52 1    
    99   50  116 1    
   100   51  117 1    
   101   51  118 1    
   102   51  119 1    
   103   52   53 2    
   104   52   54 am   BACKBONE|DICT|INTERRES
   105   54   55 1    
   106   54  120 1    
   107   55   56 1    
   108   55   57 1    
   109   55  121 1    
   110   56  122 1    
   111   56  123 1    
   112   56  124 1    
   113   57   58 2    
   114   57   59 am   BACKBONE|DICT|INTERRES
   115   59   60 1    
   116   59  125 1    
   117   60   61 1    
   118   60   62 1    
   119   60  126 1    
   120   61  127 1    
   121   61  128 1    
   122   61  129 1    
   123   62   63 2    
   124   62   64 am   BACKBONE|DICT|INTERRES
   125   64   65 1    
   126   64  130 1    
   127   65   66 1    
   128   65   69 1    
   129   65  131 1    
   130   66   67 am   BACKBONE|DICT|INTERRES
   131   66   68 2    
   132   67  132 1    
   133   67  133 1    
   134   69   70 1    
   135   69  134 1    
   136   69  135 1    
   137   70   71 1    
   138   71  136 1    
   139   71  137 1    
@<TRIPOS>SUBSTRUCTURE
     1 UNK         1 GROUP             0       ****    0 ROOT    
