@<TRIPOS>MOLECULE
3R136
137   139    1
SMALL
USER_CHARGES


@<TRIPOS>ATOM
      1 CA         26.7289   23.3913    5.5170 C.3       0 UNK        -0.1979 
      2 C          27.0932   23.4862    4.0437 C.2       0 UNK         0.4864 
      3 O          26.3490   24.0890    3.2693 O.2       0 UNK        -0.5359 
      4 N          28.2390   22.9107    3.6512 N.am      1 UNK        -0.4318 
      5 CA         28.7546   22.9045    2.2753 C.3       1 UNK         0.0824 
      6 C6         30.0137   22.0097    2.1316 C.3       12 UNK        -0.0944 
      7 S7         31.4465   22.5296    3.1507 S.3       12 UNK        -0.2672 
      8 C8         32.8084   22.5689    1.9376 C.3       12 UNK         0.0333 
      9 C9         32.9012   23.8869    1.1747 C.ar      12 UNK        -0.0807 
     10 C10        33.8626   24.8419    1.5272 C.ar      12 UNK        -0.0894 
     11 C11        34.0067   26.0252    0.7869 C.ar      12 UNK        -0.0804 
     12 C12        33.1596   26.2471   -0.3037 C.ar      12 UNK        -0.0824 
     13 C13        32.1932   25.3050   -0.6645 C.ar      12 UNK        -0.0762 
     14 C14        32.0744   24.1258    0.0738 C.ar      12 UNK        -0.0782 
     15 C15        31.2949   25.5449   -1.8679 C.3       12 UNK         0.0230 
     16 S16        30.0331   26.7988   -1.5042 S.3       12 UNK        -0.2608 
     17 C17        28.8581   26.5213   -2.8678 C.3       12 UNK        -0.0989 
     18 CA         27.4279   27.0427   -2.5799 C.3       5 UNK         0.0716 
     19 N          26.8021   26.3669   -1.4319 N.am      5 UNK        -0.4135 
     20 C          25.4848   26.1306   -1.3342 C.2       4 UNK         0.5031 
     21 O          24.6729   26.4201   -2.2144 O.2       4 UNK        -0.5229 
     22 CA         24.9681   25.4845   -0.0357 C.3       4 UNK         0.0329 
     23 CB         25.1652   23.9603   -0.0607 C.3       4 UNK        -0.2001 
     24 N          25.5656   26.0459    1.1780 N.am      4 UNK        -0.4303 
     25 C          25.4246   27.3177    1.5816 C.2       3 UNK         0.5044 
     26 O          24.7657   28.1624    0.9756 O.2       3 UNK        -0.5152 
     27 CA         26.1798   27.7332    2.8553 C.3       3 UNK         0.0319 
     28 CB         25.3706   27.3932    4.1169 C.3       3 UNK        -0.2001 
     29 N          27.5081   27.1246    2.9360 N.am      3 UNK        -0.4354 
     30 C          28.5118   27.4098    2.0942 C.2       2 UNK         0.4964 
     31 O          28.4270   28.2404    1.1932 O.2       2 UNK        -0.5047 
     32 CA         29.8073   26.6043    2.2583 C.3       2 UNK         0.0288 
     33 CB         30.6856   27.1995    3.3639 C.3       2 UNK        -0.2113 
     34 N          29.5589   25.1964    2.5502 N.am      2 UNK        -0.4145 
     35 C          28.9732   24.3254    1.7165 C.2       1 UNK         0.5006 
     36 O          28.5691   24.6080    0.5876 O.2       1 UNK        -0.5103 
     37 C          27.3773   28.5867   -2.4870 C.2       5 UNK         0.5055 
     38 O          27.7312   29.2490   -3.4643 O.2       5 UNK        -0.5220 
     39 N          26.9427   29.1288   -1.3387 N.am      6 UNK        -0.4450 
     40 CA         26.8814   30.5526   -0.9857 C.3       6 UNK         0.0367 
     41 CB         25.9099   31.3238   -1.9052 C.3       6 UNK        -0.1929 
     42 C          28.2753   31.2052   -0.8787 C.2       6 UNK         0.5070 
     43 O          28.4644   32.3461   -1.3059 O.2       6 UNK        -0.5237 
     44 N          29.2198   30.4705   -0.2820 N.am      7 UNK        -0.4739 
     45 CA         30.5261   30.9553    0.1606 C.3       7 UNK         0.0276 
     46 CB         31.5364   29.7974    0.0474 C.3       7 UNK        -0.1927 
     47 C          30.4310   31.4754    1.6083 C.2       7 UNK         0.5013 
     48 O          29.3519   31.4610    2.2085 O.2       7 UNK        -0.5193 
     49 N          31.5676   31.9252    2.1578 N.am      8 UNK        -0.4253 
     50 CA         31.7021   32.3119    3.5643 C.3       8 UNK         0.0242 
     51 CB         33.0755   32.9664    3.7883 C.3       8 UNK        -0.2000 
     52 C          31.5289   31.0862    4.4756 C.2       8 UNK         0.4948 
     53 O          32.2896   30.1265    4.3377 O.2       8 UNK        -0.5275 
     54 N          30.5467   31.1435    5.3871 N.am      9 UNK        -0.4246 
     55 CA         30.1075   30.0356    6.2487 C.3       9 UNK         0.0261 
     56 CB         28.9393   30.5076    7.1288 C.3       9 UNK        -0.1959 
     57 C          31.2088   29.3970    7.1146 C.2       9 UNK         0.5033 
     58 O          31.1141   28.2093    7.4274 O.2       9 UNK        -0.5390 
     59 N          32.2537   30.1719    7.4398 N.am      10 UNK        -0.4215 
     60 CA         33.4722   29.7222    8.1200 C.3       10 UNK         0.0240 
     61 CB         34.3760   30.9376    8.3841 C.3       10 UNK        -0.1982 
     62 C          34.2519   28.6261    7.3647 C.2       10 UNK         0.4970 
     63 O          35.0029   27.8874    8.0030 O.2       10 UNK        -0.4916 
     64 N          34.0565   28.5240    6.0421 N.am      11 UNK        -0.4279 
     65 CA         34.5685   27.4311    5.2050 C.3       11 UNK         0.1003 
     66 C          33.8526   26.0637    5.4344 C.2       11 UNK         0.5709 
     67 N          32.7015   26.0102    6.0976 N.am      11 UNK        -0.7358 
     68 O          34.3675   25.0236    5.0334 O.2       11 UNK        -0.4999 
     69 C69        34.5824   27.8564    3.7119 C.3       12 UNK        -0.0954 
     70 S70        35.8556   27.0033    2.7299 S.3       12 UNK        -0.2268 
     71 C71        35.1017   27.0581    1.0686 C.3       12 UNK         0.0203 
     72 H72        25.7760   22.8759    5.6333 H         1 UNK         0.0888 
     73 H73        27.4811   22.8486    6.0894 H         1 UNK         0.0888 
     74 H74        26.6309   24.3890    5.9439 H         1 UNK         0.0888 
     75 H75        28.8170   22.4371    4.3314 H         1 UNK         0.3017 
     76 H76        27.9713   22.4561    1.6601 H         1 UNK         0.0873 
     77 H77        30.3013   21.9322    1.0836 H         1 UNK         0.0745 
     78 H78        29.7614   20.9898    2.4257 H         1 UNK         0.0745 
     79 H79        32.7072   21.7371    1.2388 H         1 UNK         0.0705 
     80 H80        33.7414   22.3904    2.4744 H         1 UNK         0.0705 
     81 H81        34.5171   24.6401    2.3630 H         1 UNK         0.1334 
     82 H82        33.2606   27.1512   -0.8888 H         1 UNK         0.1417 
     83 H83        31.3412   23.3903   -0.2217 H         1 UNK         0.1562 
     84 H84        30.8096   24.6142   -2.1653 H         1 UNK         0.0748 
     85 H85        31.8931   25.8697   -2.7203 H         1 UNK         0.0748 
     86 H86        28.8067   25.4521   -3.0786 H         1 UNK         0.0940 
     87 H87        29.2614   26.9805   -3.7725 H         1 UNK         0.0940 
     88 H88        26.8417   26.7953   -3.4677 H         1 UNK         0.0703 
     89 H89        27.4233   26.0668   -0.6875 H         1 UNK         0.3081 
     90 H90        23.8947   25.6782    0.0183 H         1 UNK         0.0719 
     91 H91        24.6666   23.5178   -0.9241 H         1 UNK         0.0809 
     92 H92        26.2183   23.6864   -0.1188 H         1 UNK         0.0809 
     93 H93        24.7476   23.4918    0.8308 H         1 UNK         0.0809 
     94 H94        26.0818   25.4046    1.7739 H         1 UNK         0.2990 
     95 H95        26.3125   28.8170    2.8219 H         1 UNK         0.0690 
     96 H96        25.8766   27.7396    5.0183 H         1 UNK         0.0788 
     97 H97        25.2019   26.3207    4.2166 H         1 UNK         0.0788 
     98 H98        24.3919   27.8742    4.0905 H         1 UNK         0.0788 
     99 H99        27.6374   26.3931    3.6189 H         1 UNK         0.2993 
    100 H100       30.3620   26.6558    1.3210 H         1 UNK         0.0949 
    101 H101       30.9367   28.2362    3.1404 H         1 UNK         0.0767 
    102 H102       30.1938   27.1788    4.3368 H         1 UNK         0.0767 
    103 H103       31.6191   26.6458    3.4498 H         1 UNK         0.0767 
    104 H104       29.8790   24.8502    3.4427 H         1 UNK         0.3013 
    105 H105       26.7120   28.4938   -0.5859 H         1 UNK         0.3121 
    106 H106       26.4646   30.5849    0.0223 H         1 UNK         0.0774 
    107 H107       24.9333   30.8415   -1.9433 H         1 UNK         0.0815 
    108 H108       25.7550   32.3399   -1.5408 H         1 UNK         0.0815 
    109 H109       26.2880   31.4015   -2.9247 H         1 UNK         0.0815 
    110 H110       28.9344   29.5766    0.1179 H         1 UNK         0.2987 
    111 H111       30.8532   31.7780   -0.4787 H         1 UNK         0.0949 
    112 H112       31.5805   29.4142   -0.9722 H         1 UNK         0.0806 
    113 H113       32.5460   30.1122    0.3119 H         1 UNK         0.0806 
    114 H114       31.2714   28.9660    0.7016 H         1 UNK         0.0806 
    115 H115       32.4196   31.8880    1.6180 H         1 UNK         0.3010 
    116 H116       30.9276   33.0473    3.7931 H         1 UNK         0.0829 
    117 H117       33.8931   32.2811    3.5595 H         1 UNK         0.0813 
    118 H118       33.1984   33.8547    3.1685 H         1 UNK         0.0813 
    119 H119       33.1942   33.2782    4.8269 H         1 UNK         0.0813 
    120 H120       29.9786   31.9783    5.4193 H         1 UNK         0.3038 
    121 H121       29.7341   29.2523    5.5863 H         1 UNK         0.0769 
    122 H122       28.5754   29.6974    7.7627 H         1 UNK         0.0811 
    123 H123       28.0966   30.8442    6.5246 H         1 UNK         0.0811 
    124 H124       29.2334   31.3277    7.7850 H         1 UNK         0.0811 
    125 H125       32.2375   31.1319    7.1284 H         1 UNK         0.3204 
    126 H126       33.1728   29.2997    9.0813 H         1 UNK         0.0748 
    127 H127       35.2813   30.6429    8.9170 H         1 UNK         0.0771 
    128 H128       34.6867   31.4186    7.4555 H         1 UNK         0.0771 
    129 H129       33.8708   31.6836    8.9979 H         1 UNK         0.0771 
    130 H130       33.4141   29.1617    5.5793 H         1 UNK         0.2980 
    131 H131       35.6055   27.2782    5.5100 H         1 UNK         0.0545 
    132 H132       32.2674   26.8450    6.4750 H         1 UNK         0.3459 
    133 H133       32.2714   25.1126    6.2476 H         1 UNK         0.3459 
    134 H134       33.6028   27.7216    3.2539 H         1 UNK         0.0616 
    135 H135       34.7993   28.9226    3.6271 H         1 UNK         0.0616 
    136 H136       34.7143   28.0643    0.8992 H         1 UNK         0.0634 
    137 H137       35.8969   26.9093    0.3372 H         1 UNK         0.0634 
@<TRIPOS>BOND
     1    1    2 1    
     2    1   72 1    
     3    1   73 1    
     4    1   74 1    
     5    2    3 2    
     6    2    4 am   BACKBONE|DICT|INTERRES
     7    4    5 1    
     8    4   75 1    
     9    5    6 1    
    10    5   35 1    
    11    5   76 1    
    12    6    7 1    
    13    6   77 1    
    14    6   78 1    
    15    7    8 1    
    16    8    9 1    
    17    8   79 1    
    18    8   80 1    
    19    9   10 ar   
    20    9   14 ar   
    21   10   11 ar   
    22   10   81 1    
    23   11   12 ar   
    24   11   71 1    
    25   12   13 ar   
    26   12   82 1    
    27   13   14 ar   
    28   13   15 1    
    29   14   83 1    
    30   15   16 1    
    31   15   84 1    
    32   15   85 1    
    33   16   17 1    
    34   17   18 1    
    35   17   86 1    
    36   17   87 1    
    37   18   19 1    
    38   18   37 1    
    39   18   88 1    
    40   19   20 am   BACKBONE|DICT|INTERRES
    41   19   89 1    
    42   20   21 2    
    43   20   22 1    
    44   22   23 1    
    45   22   24 1    
    46   22   90 1    
    47   23   91 1    
    48   23   92 1    
    49   23   93 1    
    50   24   25 am   BACKBONE|DICT|INTERRES
    51   24   94 1    
    52   25   26 2    
    53   25   27 1    
    54   27   28 1    
    55   27   29 1    
    56   27   95 1    
    57   28   96 1    
    58   28   97 1    
    59   28   98 1    
    60   29   30 am   BACKBONE|DICT|INTERRES
    61   29   99 1    
    62   30   31 2    
    63   30   32 1    
    64   32   33 1    
    65   32   34 1    
    66   32  100 1    
    67   33  101 1    
    68   33  102 1    
    69   33  103 1    
    70   34   35 am   BACKBONE|DICT|INTERRES
    71   34  104 1    
    72   35   36 2    
    73   37   38 2    
    74   37   39 am   BACKBONE|DICT|INTERRES
    75   39   40 1    
    76   39  105 1    
    77   40   41 1    
    78   40   42 1    
    79   40  106 1    
    80   41  107 1    
    81   41  108 1    
    82   41  109 1    
    83   42   43 2    
    84   42   44 am   BACKBONE|DICT|INTERRES
    85   44   45 1    
    86   44  110 1    
    87   45   46 1    
    88   45   47 1    
    89   45  111 1    
    90   46  112 1    
    91   46  113 1    
    92   46  114 1    
    93   47   48 2    
    94   47   49 am   BACKBONE|DICT|INTERRES
    95   49   50 1    
    96   49  115 1    
    97   50   51 1    
    98   50   52 1    
    99   50  116 1    
   100   51  117 1    
   101   51  118 1    
   102   51  119 1    
   103   52   53 2    
   104   52   54 am   BACKBONE|DICT|INTERRES
   105   54   55 1    
   106   54  120 1    
   107   55   56 1    
   108   55   57 1    
   109   55  121 1    
   110   56  122 1    
   111   56  123 1    
   112   56  124 1    
   113   57   58 2    
   114   57   59 am   BACKBONE|DICT|INTERRES
   115   59   60 1    
   116   59  125 1    
   117   60   61 1    
   118   60   62 1    
   119   60  126 1    
   120   61  127 1    
   121   61  128 1    
   122   61  129 1    
   123   62   63 2    
   124   62   64 am   BACKBONE|DICT|INTERRES
   125   64   65 1    
   126   64  130 1    
   127   65   66 1    
   128   65   69 1    
   129   65  131 1    
   130   66   67 am   BACKBONE|DICT|INTERRES
   131   66   68 2    
   132   67  132 1    
   133   67  133 1    
   134   69   70 1    
   135   69  134 1    
   136   69  135 1    
   137   70   71 1    
   138   71  136 1    
   139   71  137 1    
@<TRIPOS>SUBSTRUCTURE
     1 UNK         1 GROUP             0       ****    0 ROOT    
