@<TRIPOS>MOLECULE
3R136
137   139    1
SMALL
USER_CHARGES


@<TRIPOS>ATOM
      1 CA         27.1848   18.1551    1.7101 C.3       0 UNK        -0.1979 
      2 C          27.7739   18.9473    0.5520 C.2       0 UNK         0.4864 
      3 O          27.5916   18.5660   -0.6056 O.2       0 UNK        -0.5359 
      4 N          28.4840   20.0410    0.8555 N.am      1 UNK        -0.4318 
      5 CA         29.0753   20.9525   -0.1292 C.3       1 UNK         0.0824 
      6 C6         30.1738   21.8478    0.4966 C.3       12 UNK        -0.0944 
      7 S7         31.5973   20.8878    1.1203 S.3       12 UNK        -0.2672 
      8 C8         31.3753   20.9550    2.9288 C.3       12 UNK         0.0333 
      9 C9         31.6037   22.3540    3.4843 C.ar      12 UNK        -0.0807 
     10 C10        32.9037   22.8299    3.6913 C.ar      12 UNK        -0.0894 
     11 C11        33.1133   24.1194    4.1918 C.ar      12 UNK        -0.0804 
     12 C12        32.0143   24.9372    4.4688 C.ar      12 UNK        -0.0824 
     13 C13        30.7132   24.4638    4.2889 C.ar      12 UNK        -0.0762 
     14 C14        30.5132   23.1688    3.8052 C.ar      12 UNK        -0.0782 
     15 C15        29.5270   25.3450    4.6393 C.3       12 UNK         0.0230 
     16 S16        28.6229   25.8696    3.1524 S.3       12 UNK        -0.2608 
     17 C17        27.5657   27.1725    3.8633 C.3       12 UNK        -0.0989 
     18 CA         27.9106   28.5542    3.2622 C.3       5 UNK         0.0716 
     19 N          27.5092   28.6317    1.8550 N.am      5 UNK        -0.4135 
     20 C          27.6107   29.6883    1.0408 C.2       4 UNK         0.5031 
     21 O          28.0538   30.7859    1.3887 O.2       4 UNK        -0.5229 
     22 CA         27.2061   29.4521   -0.4276 C.3       4 UNK         0.0329 
     23 CB         27.2669   30.7428   -1.2662 C.3       4 UNK        -0.2001 
     24 N          28.0542   28.4378   -1.0633 N.am      4 UNK        -0.4303 
     25 C          27.9545   27.1139   -0.8837 C.2       3 UNK         0.5044 
     26 O          27.1079   26.5857   -0.1582 O.2       3 UNK        -0.5152 
     27 CA         29.0220   26.2550   -1.5861 C.3       3 UNK         0.0319 
     28 CB         30.2961   26.1833   -0.7276 C.3       3 UNK        -0.2001 
     29 N          28.5742   24.8883   -1.8578 N.am      3 UNK        -0.4354 
     30 C          27.5853   24.5349   -2.6908 C.2       2 UNK         0.4964 
     31 O          26.9339   25.3442   -3.3534 O.2       2 UNK        -0.5047 
     32 CA         27.2925   23.0276   -2.8506 C.3       2 UNK         0.0288 
     33 CB         27.3897   22.6048   -4.3279 C.3       2 UNK        -0.2113 
     34 N          28.1848   22.1685   -2.0617 N.am      2 UNK        -0.4145 
     35 C          27.9829   21.8242   -0.7828 C.2       1 UNK         0.5006 
     36 O          27.0140   22.1996   -0.1175 O.2       1 UNK        -0.5103 
     37 C          27.2919   29.6801    4.1085 C.2       5 UNK         0.5055 
     38 O          26.0695   29.8401    4.1035 O.2       5 UNK        -0.5220 
     39 N          28.1532   30.4435    4.7953 N.am      6 UNK        -0.4450 
     40 CA         27.8761   31.5945    5.6674 C.3       6 UNK         0.0367 
     41 CB         26.9241   31.2249    6.8221 C.3       6 UNK        -0.1929 
     42 C          27.3953   32.8564    4.9273 C.2       6 UNK         0.5070 
     43 O          27.6941   33.9611    5.3816 O.2       6 UNK        -0.5237 
     44 N          26.6910   32.6895    3.8007 N.am      7 UNK        -0.4739 
     45 CA         26.2817   33.7616    2.8924 C.3       7 UNK         0.0276 
     46 CB         25.2760   33.2081    1.8704 C.3       7 UNK        -0.1927 
     47 C          27.4795   34.4141    2.1819 C.2       7 UNK         0.5013 
     48 O          27.4818   35.6329    2.0020 O.2       7 UNK        -0.5193 
     49 N          28.4771   33.5991    1.8166 N.am      8 UNK        -0.4253 
     50 CA         29.7364   34.0418    1.2201 C.3       8 UNK         0.0242 
     51 CB         29.5748   34.2170   -0.3010 C.3       8 UNK        -0.2000 
     52 C          30.9011   33.0945    1.5405 C.2       8 UNK         0.4948 
     53 O          32.0125   33.5776    1.7625 O.2       8 UNK        -0.5275 
     54 N          30.6537   31.7776    1.5373 N.am      9 UNK        -0.4246 
     55 CA         31.6783   30.7527    1.7344 C.3       9 UNK         0.0261 
     56 CB         31.3041   29.4995    0.9269 C.3       9 UNK        -0.1959 
     57 C          31.8484   30.3939    3.2167 C.2       9 UNK         0.5033 
     58 O          30.8784   30.4128    3.9804 O.2       9 UNK        -0.5390 
     59 N          33.0780   30.0104    3.5649 N.am      10 UNK        -0.4215 
     60 CA         33.5145   29.4843    4.8528 C.3       10 UNK         0.0240 
     61 CB         33.6818   30.6278    5.8709 C.3       10 UNK        -0.1982 
     62 C          34.8392   28.7469    4.6098 C.2       10 UNK         0.4970 
     63 O          35.4711   28.9650    3.5711 O.2       10 UNK        -0.4916 
     64 N          35.2372   27.8881    5.5548 N.am      11 UNK        -0.4279 
     65 CA         36.4551   27.0613    5.4517 C.3       11 UNK         0.1003 
     66 C          37.7886   27.8244    5.7069 C.2       11 UNK         0.5709 
     67 N          37.7679   29.0679    6.1723 N.am      11 UNK        -0.7358 
     68 O          38.8635   27.2781    5.4698 O.2       11 UNK        -0.4999 
     69 C69        36.3760   25.7751    6.3220 C.3       12 UNK        -0.0954 
     70 S70        34.8042   24.8472    6.2361 S.3       12 UNK        -0.2268 
     71 C71        34.5174   24.6436    4.4474 C.3       12 UNK         0.0203 
     72 H72        27.5605   17.1324    1.6946 H         1 UNK         0.0888 
     73 H73        27.4375   18.5941    2.6752 H         1 UNK         0.0888 
     74 H74        26.0988   18.1212    1.6270 H         1 UNK         0.0888 
     75 H75        28.5707   20.3234    1.8198 H         1 UNK         0.3017 
     76 H76        29.5358   20.3450   -0.9120 H         1 UNK         0.0873 
     77 H77        30.5691   22.5416   -0.2478 H         1 UNK         0.0745 
     78 H78        29.7566   22.4709    1.2874 H         1 UNK         0.0745 
     79 H79        32.0800   20.2634    3.3930 H         1 UNK         0.0705 
     80 H80        30.3806   20.5912    3.1891 H         1 UNK         0.0705 
     81 H81        33.7490   22.1956    3.4612 H         1 UNK         0.1334 
     82 H82        32.1773   25.9359    4.8508 H         1 UNK         0.1417 
     83 H83        29.5041   22.8048    3.6669 H         1 UNK         0.1562 
     84 H84        29.8619   26.2266    5.1886 H         1 UNK         0.0748 
     85 H85        28.8508   24.8036    5.3027 H         1 UNK         0.0748 
     86 H86        27.6803   27.1778    4.9494 H         1 UNK         0.0940 
     87 H87        26.5197   26.9198    3.6778 H         1 UNK         0.0940 
     88 H88        28.9947   28.6747    3.2856 H         1 UNK         0.0703 
     89 H89        27.1852   27.7630    1.4410 H         1 UNK         0.3081 
     90 H90        26.1719   29.1010   -0.4279 H         1 UNK         0.0719 
     91 H91        28.2830   31.1326   -1.3325 H         1 UNK         0.0809 
     92 H92        26.9064   30.5733   -2.2808 H         1 UNK         0.0809 
     93 H93        26.6449   31.5256   -0.8308 H         1 UNK         0.0809 
     94 H94        28.7980   28.7874   -1.6501 H         1 UNK         0.2990 
     95 H95        29.2667   26.7197   -2.5435 H         1 UNK         0.0690 
     96 H96        31.0683   25.5812   -1.2071 H         1 UNK         0.0788 
     97 H97        30.0975   25.7541    0.2561 H         1 UNK         0.0788 
     98 H98        30.7182   27.1751   -0.5712 H         1 UNK         0.0788 
     99 H99        29.0284   24.1579   -1.3335 H         1 UNK         0.2993 
    100 H100       26.2627   22.8698   -2.5219 H         1 UNK         0.0949 
    101 H101       28.3911   22.7658   -4.7292 H         1 UNK         0.0767 
    102 H102       27.1412   21.5509   -4.4558 H         1 UNK         0.0767 
    103 H103       26.6950   23.1742   -4.9472 H         1 UNK         0.0767 
    104 H104       29.0102   21.8284   -2.5357 H         1 UNK         0.3013 
    105 H105       29.1481   30.2919    4.6211 H         1 UNK         0.3121 
    106 H106       28.8397   31.8521    6.1102 H         1 UNK         0.0774 
    107 H107       26.8354   32.0511    7.5286 H         1 UNK         0.0815 
    108 H108       25.9185   30.9971    6.4678 H         1 UNK         0.0815 
    109 H109       27.2897   30.3614    7.3775 H         1 UNK         0.0815 
    110 H110       26.4528   31.7392    3.5373 H         1 UNK         0.2987 
    111 H111       25.7844   34.5348    3.4823 H         1 UNK         0.0949 
    112 H112       24.9528   33.9873    1.1788 H         1 UNK         0.0806 
    113 H113       25.7065   32.4015    1.2766 H         1 UNK         0.0806 
    114 H114       24.3837   32.8211    2.3628 H         1 UNK         0.0806 
    115 H115       28.3599   32.6009    1.9658 H         1 UNK         0.3010 
    116 H116       30.0000   35.0110    1.6499 H         1 UNK         0.0829 
    117 H117       28.8275   34.9746   -0.5371 H         1 UNK         0.0813 
    118 H118       30.5122   34.5339   -0.7601 H         1 UNK         0.0813 
    119 H119       29.2720   33.2870   -0.7821 H         1 UNK         0.0813 
    120 H120       29.7034   31.4389    1.4022 H         1 UNK         0.3038 
    121 H121       32.6304   31.1256    1.3494 H         1 UNK         0.0769 
    122 H122       30.4172   29.0082    1.3249 H         1 UNK         0.0811 
    123 H123       32.1123   28.7674    0.9502 H         1 UNK         0.0811 
    124 H124       31.1161   29.7411   -0.1193 H         1 UNK         0.0811 
    125 H125       33.8112   29.9772    2.8647 H         1 UNK         0.3204 
    126 H126       32.7743   28.7671    5.2139 H         1 UNK         0.0748 
    127 H127       34.0121   30.2496    6.8390 H         1 UNK         0.0771 
    128 H128       34.4171   31.3603    5.5353 H         1 UNK         0.0771 
    129 H129       32.7406   31.1527    6.0361 H         1 UNK         0.0771 
    130 H130       34.6828   27.7624    6.3889 H         1 UNK         0.2980 
    131 H131       36.5314   26.7317    4.4143 H         1 UNK         0.0545 
    132 H132       38.6387   29.5507    6.3284 H         1 UNK         0.3459 
    133 H133       36.8933   29.5265    6.3681 H         1 UNK         0.3459 
    134 H134       36.5364   26.0264    7.3721 H         1 UNK         0.0616 
    135 H135       37.1810   25.0893    6.0514 H         1 UNK         0.0616 
    136 H136       35.2723   23.9733    4.0338 H         1 UNK         0.0634 
    137 H137       34.6224   25.5967    3.9301 H         1 UNK         0.0634 
@<TRIPOS>BOND
     1    1    2 1    
     2    1   72 1    
     3    1   73 1    
     4    1   74 1    
     5    2    3 2    
     6    2    4 am   BACKBONE|DICT|INTERRES
     7    4    5 1    
     8    4   75 1    
     9    5    6 1    
    10    5   35 1    
    11    5   76 1    
    12    6    7 1    
    13    6   77 1    
    14    6   78 1    
    15    7    8 1    
    16    8    9 1    
    17    8   79 1    
    18    8   80 1    
    19    9   10 ar   
    20    9   14 ar   
    21   10   11 ar   
    22   10   81 1    
    23   11   12 ar   
    24   11   71 1    
    25   12   13 ar   
    26   12   82 1    
    27   13   14 ar   
    28   13   15 1    
    29   14   83 1    
    30   15   16 1    
    31   15   84 1    
    32   15   85 1    
    33   16   17 1    
    34   17   18 1    
    35   17   86 1    
    36   17   87 1    
    37   18   19 1    
    38   18   37 1    
    39   18   88 1    
    40   19   20 am   BACKBONE|DICT|INTERRES
    41   19   89 1    
    42   20   21 2    
    43   20   22 1    
    44   22   23 1    
    45   22   24 1    
    46   22   90 1    
    47   23   91 1    
    48   23   92 1    
    49   23   93 1    
    50   24   25 am   BACKBONE|DICT|INTERRES
    51   24   94 1    
    52   25   26 2    
    53   25   27 1    
    54   27   28 1    
    55   27   29 1    
    56   27   95 1    
    57   28   96 1    
    58   28   97 1    
    59   28   98 1    
    60   29   30 am   BACKBONE|DICT|INTERRES
    61   29   99 1    
    62   30   31 2    
    63   30   32 1    
    64   32   33 1    
    65   32   34 1    
    66   32  100 1    
    67   33  101 1    
    68   33  102 1    
    69   33  103 1    
    70   34   35 am   BACKBONE|DICT|INTERRES
    71   34  104 1    
    72   35   36 2    
    73   37   38 2    
    74   37   39 am   BACKBONE|DICT|INTERRES
    75   39   40 1    
    76   39  105 1    
    77   40   41 1    
    78   40   42 1    
    79   40  106 1    
    80   41  107 1    
    81   41  108 1    
    82   41  109 1    
    83   42   43 2    
    84   42   44 am   BACKBONE|DICT|INTERRES
    85   44   45 1    
    86   44  110 1    
    87   45   46 1    
    88   45   47 1    
    89   45  111 1    
    90   46  112 1    
    91   46  113 1    
    92   46  114 1    
    93   47   48 2    
    94   47   49 am   BACKBONE|DICT|INTERRES
    95   49   50 1    
    96   49  115 1    
    97   50   51 1    
    98   50   52 1    
    99   50  116 1    
   100   51  117 1    
   101   51  118 1    
   102   51  119 1    
   103   52   53 2    
   104   52   54 am   BACKBONE|DICT|INTERRES
   105   54   55 1    
   106   54  120 1    
   107   55   56 1    
   108   55   57 1    
   109   55  121 1    
   110   56  122 1    
   111   56  123 1    
   112   56  124 1    
   113   57   58 2    
   114   57   59 am   BACKBONE|DICT|INTERRES
   115   59   60 1    
   116   59  125 1    
   117   60   61 1    
   118   60   62 1    
   119   60  126 1    
   120   61  127 1    
   121   61  128 1    
   122   61  129 1    
   123   62   63 2    
   124   62   64 am   BACKBONE|DICT|INTERRES
   125   64   65 1    
   126   64  130 1    
   127   65   66 1    
   128   65   69 1    
   129   65  131 1    
   130   66   67 am   BACKBONE|DICT|INTERRES
   131   66   68 2    
   132   67  132 1    
   133   67  133 1    
   134   69   70 1    
   135   69  134 1    
   136   69  135 1    
   137   70   71 1    
   138   71  136 1    
   139   71  137 1    
@<TRIPOS>SUBSTRUCTURE
     1 UNK         1 GROUP             0       ****    0 ROOT    
