@<TRIPOS>MOLECULE
3R136
137   139    1
SMALL
USER_CHARGES


@<TRIPOS>ATOM
      1 CA         28.0863   21.1944    0.8754 C.3       0 UNK        -0.1979 
      2 C          27.8962   22.2265    1.9769 C.2       0 UNK         0.4864 
      3 O          27.2070   21.9507    2.9590 O.2       0 UNK        -0.5359 
      4 N          28.4885   23.4168    1.8014 N.am      1 UNK        -0.4318 
      5 CA         28.4542   24.5761    2.7129 C.3       1 UNK         0.0824 
      6 C6         29.0034   24.2975    4.1456 C.3       12 UNK        -0.0944 
      7 S7         30.5546   23.3271    4.2091 S.3       12 UNK        -0.2672 
      8 C8         31.8531   24.6133    4.2717 C.3       12 UNK         0.0333 
      9 C9         32.0356   25.4077    2.9781 C.ar      12 UNK        -0.0807 
     10 C10        32.5563   26.7029    3.0446 C.ar      12 UNK        -0.0894 
     11 C11        32.7053   27.4748    1.8887 C.ar      12 UNK        -0.0804 
     12 C12        32.3157   26.9484    0.6533 C.ar      12 UNK        -0.0824 
     13 C13        31.8092   25.6490    0.5682 C.ar      12 UNK        -0.0762 
     14 C14        31.7074   24.8749    1.7258 C.ar      12 UNK        -0.0782 
     15 C15        31.3493   25.0729   -0.7614 C.3       12 UNK         0.0230 
     16 S16        29.5422   25.2178   -0.9449 S.3       12 UNK        -0.2608 
     17 C17        29.4052   26.8457   -1.7643 C.3       12 UNK        -0.0989 
     18 CA         27.9553   27.4022   -1.8739 C.3       5 UNK         0.0716 
     19 N          27.0053   26.4438   -2.4256 N.am      5 UNK        -0.4135 
     20 C          26.9250   25.9958   -3.6790 C.2       4 UNK         0.5031 
     21 O          27.6753   26.3553   -4.5874 O.2       4 UNK        -0.5229 
     22 CA         25.8227   24.9590   -3.9691 C.3       4 UNK         0.0329 
     23 CB         26.4352   23.5543   -4.0954 C.3       4 UNK        -0.2001 
     24 N          24.7749   24.9243   -2.9419 N.am      4 UNK        -0.4303 
     25 C          23.7823   25.8138   -2.8175 C.2       3 UNK         0.5044 
     26 O          23.6177   26.7640   -3.5831 O.2       3 UNK        -0.5152 
     27 CA         22.8089   25.6151   -1.6398 C.3       3 UNK         0.0319 
     28 CB         22.0296   24.2892   -1.7597 C.3       3 UNK        -0.2001 
     29 N          23.4283   25.7622   -0.3137 N.am      3 UNK        -0.4354 
     30 C          24.3707   24.9990    0.2570 C.2       2 UNK         0.4964 
     31 O          24.8791   24.0068   -0.2757 O.2       2 UNK        -0.5047 
     32 CA         24.8190   25.4091    1.6664 C.3       2 UNK         0.0288 
     33 CB         23.8567   24.8630    2.7367 C.3       2 UNK        -0.2113 
     34 N          26.1556   24.8692    1.8732 N.am      2 UNK        -0.4145 
     35 C          27.0805   25.2895    2.7435 C.2       1 UNK         0.5006 
     36 O          26.8972   26.2205    3.5304 O.2       1 UNK        -0.5103 
     37 C          27.3562   27.9065   -0.5467 C.2       5 UNK         0.5055 
     38 O          26.2049   27.5841   -0.2413 O.2       5 UNK        -0.5220 
     39 N          28.1146   28.6941    0.2181 N.am      6 UNK        -0.4450 
     40 CA         27.7339   29.1780    1.5405 C.3       6 UNK         0.0367 
     41 CB         27.0509   30.5511    1.4226 C.3       6 UNK        -0.1929 
     42 C          29.0052   29.2672    2.3819 C.2       6 UNK         0.5070 
     43 O          30.0722   29.5449    1.8308 O.2       6 UNK        -0.5237 
     44 N          28.8729   29.0634    3.6967 N.am      7 UNK        -0.4739 
     45 CA         29.9637   29.0420    4.6767 C.3       7 UNK         0.0276 
     46 CB         29.4715   28.3107    5.9402 C.3       7 UNK        -0.1927 
     47 C          30.5494   30.4348    4.9957 C.2       7 UNK         0.5013 
     48 O          30.6809   30.7864    6.1702 O.2       7 UNK        -0.5193 
     49 N          30.9095   31.1981    3.9554 N.am      8 UNK        -0.4253 
     50 CA         31.5325   32.5244    4.0145 C.3       8 UNK         0.0242 
     51 CB         31.7316   33.0437    2.5804 C.3       8 UNK        -0.2000 
     52 C          32.8636   32.4806    4.7834 C.2       8 UNK         0.4948 
     53 O          33.8529   31.9719    4.2525 O.2       8 UNK        -0.5275 
     54 N          32.8311   32.9173    6.0531 N.am      9 UNK        -0.4246 
     55 CA         33.8964   32.7869    7.0622 C.3       9 UNK         0.0261 
     56 CB         35.0737   33.7268    6.7266 C.3       9 UNK        -0.1959 
     57 C          34.3522   31.3252    7.2766 C.2       9 UNK         0.5033 
     58 O          35.5259   31.0826    7.5678 O.2       9 UNK        -0.5390 
     59 N          33.4309   30.3737    7.0455 N.am      10 UNK        -0.4215 
     60 CA         33.6408   28.9227    6.9466 C.3       10 UNK         0.0240 
     61 CB         33.9497   28.3303    8.3371 C.3       10 UNK        -0.1982 
     62 C          34.6832   28.4982    5.8857 C.2       10 UNK         0.4970 
     63 O          35.1644   27.3661    5.9452 O.2       10 UNK        -0.4916 
     64 N          35.0240   29.3984    4.9486 N.am      11 UNK        -0.4279 
     65 CA         36.1490   29.2859    4.0073 C.3       11 UNK         0.1003 
     66 C          37.5443   29.1632    4.6999 C.2       11 UNK         0.5709 
     67 N          37.7079   29.6384    5.9311 N.am      11 UNK        -0.7358 
     68 O          38.5042   28.6708    4.1113 O.2       11 UNK        -0.4999 
     69 C69        35.8775   28.2440    2.8782 C.3       12 UNK        -0.0954 
     70 S70        34.9939   28.9924    1.4680 S.3       12 UNK        -0.2268 
     71 C71        33.2509   28.8919    1.9757 C.3       12 UNK         0.0203 
     72 H72        28.7132   21.5702    0.0667 H         1 UNK         0.0888 
     73 H73        28.5558   20.2978    1.2793 H         1 UNK         0.0888 
     74 H74        27.1212   20.9145    0.4535 H         1 UNK         0.0888 
     75 H75        29.0034   23.5786    0.9459 H         1 UNK         0.3017 
     76 H76        29.1146   25.3147    2.2592 H         1 UNK         0.0873 
     77 H77        29.1619   25.2363    4.6762 H         1 UNK         0.0745 
     78 H78        28.2603   23.7507    4.7286 H         1 UNK         0.0745 
     79 H79        31.6320   25.2885    5.1000 H         1 UNK         0.0705 
     80 H80        32.8019   24.1318    4.5115 H         1 UNK         0.0705 
     81 H81        32.8425   27.1143    4.0019 H         1 UNK         0.1334 
     82 H82        32.4072   27.5532   -0.2384 H         1 UNK         0.1417 
     83 H83        31.3324   23.8646    1.6478 H         1 UNK         0.1562 
     84 H84        31.6254   24.0188   -0.8177 H         1 UNK         0.0748 
     85 H85        31.8548   25.5624   -1.5954 H         1 UNK         0.0748 
     86 H86        29.8151   26.7357   -2.7695 H         1 UNK         0.0940 
     87 H87        30.0643   27.5578   -1.2666 H         1 UNK         0.0940 
     88 H88        27.9719   28.2665   -2.5407 H         1 UNK         0.0703 
     89 H89        26.3066   26.1517   -1.7542 H         1 UNK         0.3081 
     90 H90        25.3657   25.2230   -4.9251 H         1 UNK         0.0719 
     91 H91        26.9063   23.2354   -3.1645 H         1 UNK         0.0809 
     92 H92        25.6803   22.8143   -4.3616 H         1 UNK         0.0809 
     93 H93        27.2001   23.5298   -4.8729 H         1 UNK         0.0809 
     94 H94        24.8609   24.2235   -2.2109 H         1 UNK         0.2990 
     95 H95        22.0759   26.4207   -1.7085 H         1 UNK         0.0690 
     96 H96        21.2662   24.2102   -0.9857 H         1 UNK         0.0788 
     97 H97        22.6775   23.4163   -1.6771 H         1 UNK         0.0788 
     98 H98        21.5210   24.2236   -2.7225 H         1 UNK         0.0788 
     99 H99        23.1172   26.5727    0.2045 H         1 UNK         0.2993 
    100 H100       24.8595   26.4985    1.7277 H         1 UNK         0.0949 
    101 H101       24.1691   25.1578    3.7387 H         1 UNK         0.0767 
    102 H102       22.8457   25.2441    2.5879 H         1 UNK         0.0767 
    103 H103       23.8047   23.7736    2.7100 H         1 UNK         0.0767 
    104 H104       26.3903   24.1201    1.2338 H         1 UNK         0.3013 
    105 H105       29.0724   28.9023   -0.0362 H         1 UNK         0.3121 
    106 H106       27.0511   28.4707    2.0160 H         1 UNK         0.0774 
    107 H107       26.7684   30.9335    2.4042 H         1 UNK         0.0815 
    108 H108       27.7076   31.2890    0.9599 H         1 UNK         0.0815 
    109 H109       26.1415   30.4899    0.8246 H         1 UNK         0.0815 
    110 H110       27.9512   28.8582    4.0575 H         1 UNK         0.2987 
    111 H111       30.7788   28.4548    4.2531 H         1 UNK         0.0949 
    112 H112       28.6721   28.8621    6.4367 H         1 UNK         0.0806 
    113 H113       29.0923   27.3173    5.7048 H         1 UNK         0.0806 
    114 H114       30.2764   28.1831    6.6647 H         1 UNK         0.0806 
    115 H115       30.7661   30.7988    3.0306 H         1 UNK         0.3010 
    116 H116       30.8455   33.1985    4.5299 H         1 UNK         0.0829 
    117 H117       30.7801   33.1378    2.0566 H         1 UNK         0.0813 
    118 H118       32.2000   34.0287    2.5832 H         1 UNK         0.0813 
    119 H119       32.3705   32.3800    1.9955 H         1 UNK         0.0813 
    120 H120       31.9492   33.2675    6.4038 H         1 UNK         0.3038 
    121 H121       33.4680   33.1130    8.0111 H         1 UNK         0.0769 
    122 H122       35.5891   33.4193    5.8159 H         1 UNK         0.0811 
    123 H123       35.8112   33.7345    7.5301 H         1 UNK         0.0811 
    124 H124       34.7355   34.7539    6.5900 H         1 UNK         0.0811 
    125 H125       32.4887   30.6839    6.8150 H         1 UNK         0.3204 
    126 H126       32.6922   28.5025    6.6122 H         1 UNK         0.0748 
    127 H127       33.9672   27.2401    8.3070 H         1 UNK         0.0771 
    128 H128       34.9198   28.6609    8.7098 H         1 UNK         0.0771 
    129 H129       33.1938   28.6189    9.0675 H         1 UNK         0.0771 
    130 H130       34.5667   30.3056    4.9409 H         1 UNK         0.2980 
    131 H131       36.2123   30.2683    3.5380 H         1 UNK         0.0545 
    132 H132       36.9387   30.0732    6.4292 H         1 UNK         0.3459 
    133 H133       38.6129   29.5692    6.3680 H         1 UNK         0.3459 
    134 H134       36.8048   27.8482    2.4631 H         1 UNK         0.0616 
    135 H135       35.3343   27.3739    3.2467 H         1 UNK         0.0616 
    136 H136       33.1298   29.2983    2.9798 H         1 UNK         0.0634 
    137 H137       32.6709   29.5416    1.3196 H         1 UNK         0.0634 
@<TRIPOS>BOND
     1    1    2 1    
     2    1   72 1    
     3    1   73 1    
     4    1   74 1    
     5    2    3 2    
     6    2    4 am   BACKBONE|DICT|INTERRES
     7    4    5 1    
     8    4   75 1    
     9    5    6 1    
    10    5   35 1    
    11    5   76 1    
    12    6    7 1    
    13    6   77 1    
    14    6   78 1    
    15    7    8 1    
    16    8    9 1    
    17    8   79 1    
    18    8   80 1    
    19    9   10 ar   
    20    9   14 ar   
    21   10   11 ar   
    22   10   81 1    
    23   11   12 ar   
    24   11   71 1    
    25   12   13 ar   
    26   12   82 1    
    27   13   14 ar   
    28   13   15 1    
    29   14   83 1    
    30   15   16 1    
    31   15   84 1    
    32   15   85 1    
    33   16   17 1    
    34   17   18 1    
    35   17   86 1    
    36   17   87 1    
    37   18   19 1    
    38   18   37 1    
    39   18   88 1    
    40   19   20 am   BACKBONE|DICT|INTERRES
    41   19   89 1    
    42   20   21 2    
    43   20   22 1    
    44   22   23 1    
    45   22   24 1    
    46   22   90 1    
    47   23   91 1    
    48   23   92 1    
    49   23   93 1    
    50   24   25 am   BACKBONE|DICT|INTERRES
    51   24   94 1    
    52   25   26 2    
    53   25   27 1    
    54   27   28 1    
    55   27   29 1    
    56   27   95 1    
    57   28   96 1    
    58   28   97 1    
    59   28   98 1    
    60   29   30 am   BACKBONE|DICT|INTERRES
    61   29   99 1    
    62   30   31 2    
    63   30   32 1    
    64   32   33 1    
    65   32   34 1    
    66   32  100 1    
    67   33  101 1    
    68   33  102 1    
    69   33  103 1    
    70   34   35 am   BACKBONE|DICT|INTERRES
    71   34  104 1    
    72   35   36 2    
    73   37   38 2    
    74   37   39 am   BACKBONE|DICT|INTERRES
    75   39   40 1    
    76   39  105 1    
    77   40   41 1    
    78   40   42 1    
    79   40  106 1    
    80   41  107 1    
    81   41  108 1    
    82   41  109 1    
    83   42   43 2    
    84   42   44 am   BACKBONE|DICT|INTERRES
    85   44   45 1    
    86   44  110 1    
    87   45   46 1    
    88   45   47 1    
    89   45  111 1    
    90   46  112 1    
    91   46  113 1    
    92   46  114 1    
    93   47   48 2    
    94   47   49 am   BACKBONE|DICT|INTERRES
    95   49   50 1    
    96   49  115 1    
    97   50   51 1    
    98   50   52 1    
    99   50  116 1    
   100   51  117 1    
   101   51  118 1    
   102   51  119 1    
   103   52   53 2    
   104   52   54 am   BACKBONE|DICT|INTERRES
   105   54   55 1    
   106   54  120 1    
   107   55   56 1    
   108   55   57 1    
   109   55  121 1    
   110   56  122 1    
   111   56  123 1    
   112   56  124 1    
   113   57   58 2    
   114   57   59 am   BACKBONE|DICT|INTERRES
   115   59   60 1    
   116   59  125 1    
   117   60   61 1    
   118   60   62 1    
   119   60  126 1    
   120   61  127 1    
   121   61  128 1    
   122   61  129 1    
   123   62   63 2    
   124   62   64 am   BACKBONE|DICT|INTERRES
   125   64   65 1    
   126   64  130 1    
   127   65   66 1    
   128   65   69 1    
   129   65  131 1    
   130   66   67 am   BACKBONE|DICT|INTERRES
   131   66   68 2    
   132   67  132 1    
   133   67  133 1    
   134   69   70 1    
   135   69  134 1    
   136   69  135 1    
   137   70   71 1    
   138   71  136 1    
   139   71  137 1    
@<TRIPOS>SUBSTRUCTURE
     1 UNK         1 GROUP             0       ****    0 ROOT    
