@<TRIPOS>MOLECULE
3R136
137   139    1
SMALL
USER_CHARGES


@<TRIPOS>ATOM
      1 CA         30.0980   21.6685   -5.0216 C.3       0 UNK        -0.1979 
      2 C          29.3379   22.0916   -3.7736 C.2       0 UNK         0.4864 
      3 O          28.4804   22.9741   -3.8473 O.2       0 UNK        -0.5359 
      4 N          29.6373   21.4679   -2.6260 N.am      1 UNK        -0.4318 
      5 CA         29.0011   21.7273   -1.3310 C.3       1 UNK         0.0824 
      6 C6         29.9266   21.3071   -0.1582 C.3       12 UNK        -0.0944 
      7 S7         29.3919   21.9967    1.4483 S.3       12 UNK        -0.2672 
      8 C8         30.9695   22.1155    2.3508 C.3       12 UNK         0.0333 
      9 C9         31.5259   23.5347    2.4215 C.ar      12 UNK        -0.0807 
     10 C10        31.9560   24.0431    3.6515 C.ar      12 UNK        -0.0894 
     11 C11        32.5356   25.3118    3.7383 C.ar      12 UNK        -0.0804 
     12 C12        32.6779   26.0817    2.5822 C.ar      12 UNK        -0.0824 
     13 C13        32.2408   25.5948    1.3461 C.ar      12 UNK        -0.0762 
     14 C14        31.6674   24.3210    1.2718 C.ar      12 UNK        -0.0782 
     15 C15        32.4326   26.4215    0.0817 C.3       12 UNK         0.0230 
     16 S16        30.9328   27.3472   -0.3755 S.3       12 UNK        -0.2608 
     17 C17        30.8619   28.6198    0.9311 C.3       12 UNK        -0.0989 
     18 CA         29.5375   28.5898    1.7359 C.3       5 UNK         0.0716 
     19 N          29.2813   27.2602    2.3039 N.am      5 UNK        -0.4135 
     20 C          28.0834   26.7799    2.6550 C.2       4 UNK         0.5031 
     21 O          27.0459   27.4492    2.6495 O.2       4 UNK        -0.5229 
     22 CA         28.0407   25.3140    3.1154 C.3       4 UNK         0.0329 
     23 CB         28.1676   25.2238    4.6434 C.3       4 UNK        -0.2001 
     24 N          26.8074   24.6463    2.6895 N.am      4 UNK        -0.4303 
     25 C          26.4881   24.4090    1.4113 C.2       3 UNK         0.5044 
     26 O          27.2145   24.6964    0.4532 O.2       3 UNK        -0.5152 
     27 CA         25.1348   23.7340    1.1485 C.3       3 UNK         0.0319 
     28 CB         23.9832   24.7538    1.1467 C.3       3 UNK        -0.2001 
     29 N          25.2448   23.1046   -0.1581 N.am      3 UNK        -0.4354 
     30 C          24.6524   21.9837   -0.5798 C.2       2 UNK         0.4964 
     31 O          23.7504   21.4047    0.0260 O.2       2 UNK        -0.5047 
     32 CA         25.2090   21.3900   -1.8888 C.3       2 UNK         0.0288 
     33 CB         24.4639   21.9578   -3.1075 C.3       2 UNK        -0.2113 
     34 N          26.6468   21.6546   -2.0263 N.am      2 UNK        -0.4145 
     35 C          27.5953   21.0844   -1.2695 C.2       1 UNK         0.5006 
     36 O          27.3866   20.1033   -0.5522 O.2       1 UNK        -0.5103 
     37 C          29.4842   29.6983    2.8133 C.2       5 UNK         0.5055 
     38 O          30.4668   30.4200    3.0028 O.2       5 UNK        -0.5220 
     39 N          28.3424   29.7982    3.5069 N.am      6 UNK        -0.4450 
     40 CA         28.0418   30.7315    4.5936 C.3       6 UNK         0.0367 
     41 CB         26.6010   30.4944    5.0756 C.3       6 UNK        -0.1929 
     42 C          28.2614   32.1980    4.1865 C.2       6 UNK         0.5070 
     43 O          27.4775   32.7345    3.4023 O.2       6 UNK        -0.5237 
     44 N          29.3512   32.7886    4.6959 N.am      7 UNK        -0.4739 
     45 CA         29.8667   34.1380    4.4257 C.3       7 UNK         0.0276 
     46 CB         28.8485   35.2200    4.8438 C.3       7 UNK        -0.1927 
     47 C          30.3872   34.3519    2.9885 C.2       7 UNK         0.5013 
     48 O          30.7476   35.4797    2.6470 O.2       7 UNK        -0.5193 
     49 N          30.4454   33.2842    2.1821 N.am      8 UNK        -0.4253 
     50 CA         30.9972   33.2799    0.8259 C.3       8 UNK         0.0242 
     51 CB         30.0521   32.4991   -0.1021 C.3       8 UNK        -0.2000 
     52 C          32.4228   32.7028    0.7935 C.2       8 UNK         0.4948 
     53 O          33.1670   33.0046   -0.1405 O.2       8 UNK        -0.5275 
     54 N          32.7908   31.9156    1.8117 N.am      9 UNK        -0.4246 
     55 CA         34.1440   31.4284    2.0653 C.3       9 UNK         0.0261 
     56 CB         34.3394   30.0381    1.4242 C.3       9 UNK        -0.1959 
     57 C          34.3915   31.4663    3.5830 C.2       9 UNK         0.5033 
     58 O          33.8924   32.3727    4.2531 O.2       9 UNK        -0.5390 
     59 N          35.1571   30.4978    4.1050 N.am      10 UNK        -0.4215 
     60 CA         35.4951   30.3693    5.5277 C.3       10 UNK         0.0240 
     61 CB         36.6282   29.3409    5.6824 C.3       10 UNK        -0.1982 
     62 C          34.3048   29.9906    6.4310 C.2       10 UNK         0.4970 
     63 O          34.3524   30.2726    7.6293 O.2       10 UNK        -0.4916 
     64 N          33.2803   29.3482    5.8562 N.am      11 UNK        -0.4279 
     65 CA         32.0307   28.9825    6.5358 C.3       11 UNK         0.1003 
     66 C          31.1470   30.2153    6.8700 C.2       11 UNK         0.5709 
     67 N          30.2906   30.1033    7.8762 N.am      11 UNK        -0.7358 
     68 O          31.1923   31.2510    6.2106 O.2       11 UNK        -0.4999 
     69 C69        31.2525   27.9071    5.7249 C.3       12 UNK        -0.0954 
     70 S70        31.7325   26.2256    6.2374 S.3       12 UNK        -0.2268 
     71 C71        33.0665   25.8159    5.0723 C.3       12 UNK         0.0203 
     72 H72        30.6308   22.5208   -5.4425 H         1 UNK         0.0888 
     73 H73        30.8252   20.8846   -4.8105 H         1 UNK         0.0888 
     74 H74        29.4043   21.2944   -5.7741 H         1 UNK         0.0888 
     75 H75        30.3267   20.7293   -2.6331 H         1 UNK         0.3017 
     76 H76        28.8569   22.8077   -1.2468 H         1 UNK         0.0873 
     77 H77        29.9982   20.2209   -0.0760 H         1 UNK         0.0745 
     78 H78        30.9403   21.6583   -0.3565 H         1 UNK         0.0745 
     79 H79        30.7981   21.7291    3.3566 H         1 UNK         0.0705 
     80 H80        31.7148   21.4583    1.9011 H         1 UNK         0.0705 
     81 H81        31.8649   23.4417    4.5461 H         1 UNK         0.1334 
     82 H82        33.1542   27.0491    2.6437 H         1 UNK         0.1417 
     83 H83        31.3443   23.9380    0.3138 H         1 UNK         0.1562 
     84 H84        32.7005   25.7628   -0.7458 H         1 UNK         0.0748 
     85 H85        33.2682   27.1142    0.1951 H         1 UNK         0.0748 
     86 H86        31.0041   29.5871    0.4495 H         1 UNK         0.0940 
     87 H87        31.7071   28.5052    1.6050 H         1 UNK         0.0940 
     88 H88        28.7318   28.8099    1.0319 H         1 UNK         0.0703 
     89 H89        30.0798   26.6420    2.3411 H         1 UNK         0.3081 
     90 H90        28.8816   24.7833    2.6648 H         1 UNK         0.0719 
     91 H91        27.3401   25.7232    5.1490 H         1 UNK         0.0809 
     92 H92        28.1947   24.1870    4.9790 H         1 UNK         0.0809 
     93 H93        29.0894   25.6949    4.9843 H         1 UNK         0.0809 
     94 H94        26.1444   24.4107    3.4133 H         1 UNK         0.2990 
     95 H95        24.9630   22.9711    1.9109 H         1 UNK         0.0690 
     96 H96        23.8899   25.2408    2.1182 H         1 UNK         0.0788 
     97 H97        23.0289   24.2732    0.9307 H         1 UNK         0.0788 
     98 H98        24.1407   25.5359    0.4027 H         1 UNK         0.0788 
     99 H99        26.0037   23.4902   -0.7079 H         1 UNK         0.2993 
    100 H100       25.0544   20.3091   -1.8591 H         1 UNK         0.0949 
    101 H101       24.8178   21.5048   -4.0339 H         1 UNK         0.0767 
    102 H102       23.3937   21.7581   -3.0371 H         1 UNK         0.0767 
    103 H103       24.5901   23.0380   -3.1925 H         1 UNK         0.0767 
    104 H104       26.9345   22.3898   -2.6654 H         1 UNK         0.3013 
    105 H105       27.6113   29.1320    3.2677 H         1 UNK         0.3121 
    106 H106       28.7062   30.4913    5.4222 H         1 UNK         0.0774 
    107 H107       26.3464   31.1726    5.8911 H         1 UNK         0.0815 
    108 H108       25.8759   30.6571    4.2771 H         1 UNK         0.0815 
    109 H109       26.4685   29.4777    5.4463 H         1 UNK         0.0815 
    110 H110       29.9695   32.2163    5.2720 H         1 UNK         0.2987 
    111 H111       30.7417   34.2463    5.0687 H         1 UNK         0.0949 
    112 H112       27.9724   35.2268    4.1950 H         1 UNK         0.0806 
    113 H113       28.5080   35.0703    5.8682 H         1 UNK         0.0806 
    114 H114       29.2929   36.2148    4.7946 H         1 UNK         0.0806 
    115 H115       30.1639   32.3869    2.5628 H         1 UNK         0.3010 
    116 H116       31.0629   34.3014    0.4452 H         1 UNK         0.0829 
    117 H117       29.1029   33.0224   -0.2189 H         1 UNK         0.0813 
    118 H118       30.4818   32.3832   -1.0981 H         1 UNK         0.0813 
    119 H119       29.8311   31.5051    0.2813 H         1 UNK         0.0813 
    120 H120       32.1175   31.7181    2.5442 H         1 UNK         0.3038 
    121 H121       34.8624   32.1197    1.6196 H         1 UNK         0.0769 
    122 H122       35.3919   29.7531    1.4110 H         1 UNK         0.0811 
    123 H123       33.9985   30.0278    0.3886 H         1 UNK         0.0811 
    124 H124       33.7931   29.2650    1.9609 H         1 UNK         0.0811 
    125 H125       35.5488   29.8062    3.4820 H         1 UNK         0.3204 
    126 H126       35.8647   31.3377    5.8719 H         1 UNK         0.0748 
    127 H127       36.9282   29.2445    6.7270 H         1 UNK         0.0771 
    128 H128       36.3262   28.3507    5.3383 H         1 UNK         0.0771 
    129 H129       37.5142   29.6376    5.1207 H         1 UNK         0.0771 
    130 H130       33.3040   29.2056    4.8600 H         1 UNK         0.2980 
    131 H131       32.3112   28.5572    7.5020 H         1 UNK         0.0545 
    132 H132       29.7070   30.8891    8.1149 H         1 UNK         0.3459 
    133 H133       30.2334   29.2560    8.4194 H         1 UNK         0.3459 
    134 H134       31.3886   28.0311    4.6495 H         1 UNK         0.0616 
    135 H135       30.1760   27.9790    5.8931 H         1 UNK         0.0616 
    136 H136       33.6863   25.0377    5.5197 H         1 UNK         0.0634 
    137 H137       33.7190   26.6795    4.9392 H         1 UNK         0.0634 
@<TRIPOS>BOND
     1    1    2 1    
     2    1   72 1    
     3    1   73 1    
     4    1   74 1    
     5    2    3 2    
     6    2    4 am   BACKBONE|DICT|INTERRES
     7    4    5 1    
     8    4   75 1    
     9    5    6 1    
    10    5   35 1    
    11    5   76 1    
    12    6    7 1    
    13    6   77 1    
    14    6   78 1    
    15    7    8 1    
    16    8    9 1    
    17    8   79 1    
    18    8   80 1    
    19    9   10 ar   
    20    9   14 ar   
    21   10   11 ar   
    22   10   81 1    
    23   11   12 ar   
    24   11   71 1    
    25   12   13 ar   
    26   12   82 1    
    27   13   14 ar   
    28   13   15 1    
    29   14   83 1    
    30   15   16 1    
    31   15   84 1    
    32   15   85 1    
    33   16   17 1    
    34   17   18 1    
    35   17   86 1    
    36   17   87 1    
    37   18   19 1    
    38   18   37 1    
    39   18   88 1    
    40   19   20 am   BACKBONE|DICT|INTERRES
    41   19   89 1    
    42   20   21 2    
    43   20   22 1    
    44   22   23 1    
    45   22   24 1    
    46   22   90 1    
    47   23   91 1    
    48   23   92 1    
    49   23   93 1    
    50   24   25 am   BACKBONE|DICT|INTERRES
    51   24   94 1    
    52   25   26 2    
    53   25   27 1    
    54   27   28 1    
    55   27   29 1    
    56   27   95 1    
    57   28   96 1    
    58   28   97 1    
    59   28   98 1    
    60   29   30 am   BACKBONE|DICT|INTERRES
    61   29   99 1    
    62   30   31 2    
    63   30   32 1    
    64   32   33 1    
    65   32   34 1    
    66   32  100 1    
    67   33  101 1    
    68   33  102 1    
    69   33  103 1    
    70   34   35 am   BACKBONE|DICT|INTERRES
    71   34  104 1    
    72   35   36 2    
    73   37   38 2    
    74   37   39 am   BACKBONE|DICT|INTERRES
    75   39   40 1    
    76   39  105 1    
    77   40   41 1    
    78   40   42 1    
    79   40  106 1    
    80   41  107 1    
    81   41  108 1    
    82   41  109 1    
    83   42   43 2    
    84   42   44 am   BACKBONE|DICT|INTERRES
    85   44   45 1    
    86   44  110 1    
    87   45   46 1    
    88   45   47 1    
    89   45  111 1    
    90   46  112 1    
    91   46  113 1    
    92   46  114 1    
    93   47   48 2    
    94   47   49 am   BACKBONE|DICT|INTERRES
    95   49   50 1    
    96   49  115 1    
    97   50   51 1    
    98   50   52 1    
    99   50  116 1    
   100   51  117 1    
   101   51  118 1    
   102   51  119 1    
   103   52   53 2    
   104   52   54 am   BACKBONE|DICT|INTERRES
   105   54   55 1    
   106   54  120 1    
   107   55   56 1    
   108   55   57 1    
   109   55  121 1    
   110   56  122 1    
   111   56  123 1    
   112   56  124 1    
   113   57   58 2    
   114   57   59 am   BACKBONE|DICT|INTERRES
   115   59   60 1    
   116   59  125 1    
   117   60   61 1    
   118   60   62 1    
   119   60  126 1    
   120   61  127 1    
   121   61  128 1    
   122   61  129 1    
   123   62   63 2    
   124   62   64 am   BACKBONE|DICT|INTERRES
   125   64   65 1    
   126   64  130 1    
   127   65   66 1    
   128   65   69 1    
   129   65  131 1    
   130   66   67 am   BACKBONE|DICT|INTERRES
   131   66   68 2    
   132   67  132 1    
   133   67  133 1    
   134   69   70 1    
   135   69  134 1    
   136   69  135 1    
   137   70   71 1    
   138   71  136 1    
   139   71  137 1    
@<TRIPOS>SUBSTRUCTURE
     1 UNK         1 GROUP             0       ****    0 ROOT    
