@<TRIPOS>MOLECULE
3R136
137   139    1
SMALL
USER_CHARGES


@<TRIPOS>ATOM
      1 CA         30.4430   21.6927    3.7561 C.3       0 UNK        -0.1979 
      2 C          29.8815   22.7308    2.7961 C.2       0 UNK         0.4864 
      3 O          29.9491   22.5371    1.5823 O.2       0 UNK        -0.5359 
      4 N          29.3328   23.8277    3.3367 N.am      1 UNK        -0.4318 
      5 CA         28.8158   24.9824    2.5887 C.3       1 UNK         0.0824 
      6 C6         28.5409   26.2209    3.4976 C.3       12 UNK        -0.0944 
      7 S7         29.5944   26.3545    4.9924 S.3       12 UNK        -0.2672 
      8 C8         31.0305   27.3046    4.4116 C.3       12 UNK         0.0333 
      9 C9         31.8397   26.5489    3.3759 C.ar      12 UNK        -0.0807 
     10 C10        32.7044   25.5259    3.7659 C.ar      12 UNK        -0.0894 
     11 C11        33.4901   24.8666    2.8163 C.ar      12 UNK        -0.0804 
     12 C12        33.3498   25.1869    1.4616 C.ar      12 UNK        -0.0824 
     13 C13        32.4727   26.1998    1.0591 C.ar      12 UNK        -0.0762 
     14 C14        31.7473   26.8981    2.0286 C.ar      12 UNK        -0.0782 
     15 C15        32.3302   26.5530   -0.4162 C.3       12 UNK         0.0230 
     16 S16        30.6667   26.1613   -1.0565 S.3       12 UNK        -0.2608 
     17 C17        29.7223   27.6411   -0.5604 C.3       12 UNK        -0.0989 
     18 CA         28.6797   28.0563   -1.6227 C.3       5 UNK         0.0716 
     19 N          27.5827   27.0923   -1.6861 N.am      5 UNK        -0.4135 
     20 C          26.6730   27.0328   -2.6671 C.2       4 UNK         0.5031 
     21 O          26.7077   27.7302   -3.6822 O.2       4 UNK        -0.5229 
     22 CA         25.5248   26.0339   -2.4799 C.3       4 UNK         0.0329 
     23 CB         25.9619   24.6248   -2.9136 C.3       4 UNK        -0.2001 
     24 N          25.0983   25.9926   -1.0828 N.am      4 UNK        -0.4303 
     25 C          24.0327   26.6237   -0.5700 C.2       3 UNK         0.5044 
     26 O          23.2706   27.3249   -1.2376 O.2       3 UNK        -0.5152 
     27 CA         23.7744   26.4498    0.9462 C.3       3 UNK         0.0319 
     28 CB         22.2706   26.3676    1.2845 C.3       3 UNK        -0.2001 
     29 N          24.5172   25.3293    1.5438 N.am      3 UNK        -0.4354 
     30 C          24.4236   24.0280    1.2263 C.2       2 UNK         0.4964 
     31 O          23.5317   23.5631    0.5155 O.2       2 UNK        -0.5047 
     32 CA         25.5373   23.0888    1.7373 C.3       2 UNK         0.0288 
     33 CB         25.9881   22.1059    0.6356 C.3       2 UNK        -0.2113 
     34 N          26.7206   23.7450    2.3189 N.am      2 UNK        -0.4145 
     35 C          27.5655   24.6266    1.7532 C.2       1 UNK         0.5006 
     36 O          27.3850   25.1549    0.6513 O.2       1 UNK        -0.5103 
     37 C          28.1493   29.4688   -1.3074 C.2       5 UNK         0.5055 
     38 O          27.1767   29.6117   -0.5617 O.2       5 UNK        -0.5220 
     39 N          28.8424   30.4865   -1.8371 N.am      6 UNK        -0.4450 
     40 CA         28.6477   31.8919   -1.4658 C.3       6 UNK         0.0367 
     41 CB         29.2433   32.7985   -2.5552 C.3       6 UNK        -0.1929 
     42 C          29.2666   32.2164   -0.0929 C.2       6 UNK         0.5070 
     43 O          28.7576   33.0895    0.6107 O.2       6 UNK        -0.5237 
     44 N          30.3476   31.5067    0.2628 N.am      7 UNK        -0.4739 
     45 CA         30.9765   31.5416    1.5837 C.3       7 UNK         0.0276 
     46 CB         32.3651   30.8853    1.4956 C.3       7 UNK        -0.1927 
     47 C          30.1108   30.8200    2.6297 C.2       7 UNK         0.5013 
     48 O          29.4228   29.8538    2.2911 O.2       7 UNK        -0.5193 
     49 N          30.1997   31.2770    3.8819 N.am      8 UNK        -0.4253 
     50 CA         29.5273   30.7041    5.0448 C.3       8 UNK         0.0242 
     51 CB         28.3969   31.6466    5.4904 C.3       8 UNK        -0.2000 
     52 C          30.5576   30.5283    6.1661 C.2       8 UNK         0.4948 
     53 O          31.5339   31.2813    6.2180 O.2       8 UNK        -0.5275 
     54 N          30.3126   29.5481    7.0461 N.am      9 UNK        -0.4246 
     55 CA         31.0749   29.1738    8.2488 C.3       9 UNK         0.0261 
     56 CB         31.1087   30.3258    9.2727 C.3       9 UNK        -0.1959 
     57 C          32.4921   28.6192    8.0007 C.2       9 UNK         0.5033 
     58 O          32.8540   27.6228    8.6281 O.2       9 UNK        -0.5390 
     59 N          33.2631   29.2539    7.1130 N.am      10 UNK        -0.4215 
     60 CA         34.6186   28.8677    6.7243 C.3       10 UNK         0.0240 
     61 CB         35.5852   30.0032    7.1005 C.3       10 UNK        -0.1982 
     62 C          34.6680   28.6020    5.2155 C.2       10 UNK         0.4970 
     63 O          33.8908   29.1955    4.4646 O.2       10 UNK        -0.4916 
     64 N          35.6001   27.7338    4.8046 N.am      11 UNK        -0.4279 
     65 CA         35.8009   27.3184    3.4054 C.3       11 UNK         0.1003 
     66 C          36.5016   28.3733    2.4999 C.2       11 UNK         0.5709 
     67 N          37.0066   29.4807    3.0309 N.am      11 UNK        -0.7358 
     68 O          36.5851   28.1852    1.2886 O.2       11 UNK        -0.4999 
     69 C69        36.4994   25.9300    3.2941 C.3       12 UNK        -0.0954 
     70 S70        35.7795   24.6268    4.3586 S.3       12 UNK        -0.2268 
     71 C71        34.5359   23.8582    3.2654 C.3       12 UNK         0.0203 
     72 H72        29.9451   20.7349    3.6077 H         1 UNK         0.0888 
     73 H73        31.5089   21.5559    3.5753 H         1 UNK         0.0888 
     74 H74        30.3117   21.9866    4.7974 H         1 UNK         0.0888 
     75 H75        29.3462   23.9484    4.3402 H         1 UNK         0.3017 
     76 H76        29.5917   25.2538    1.8717 H         1 UNK         0.0873 
     77 H77        28.6272   27.1398    2.9146 H         1 UNK         0.0745 
     78 H78        27.5138   26.2072    3.8678 H         1 UNK         0.0745 
     79 H79        30.7036   28.2610    4.0113 H         1 UNK         0.0705 
     80 H80        31.6684   27.5330    5.2652 H         1 UNK         0.0705 
     81 H81        32.8026   25.2767    4.8136 H         1 UNK         0.1334 
     82 H82        33.9450   24.6671    0.7234 H         1 UNK         0.1417 
     83 H83        31.0923   27.7063    1.7423 H         1 UNK         0.1562 
     84 H84        33.0580   25.9960   -1.0082 H         1 UNK         0.0748 
     85 H85        32.5649   27.6068   -0.5714 H         1 UNK         0.0748 
     86 H86        30.4257   28.4558   -0.3821 H         1 UNK         0.0940 
     87 H87        29.2327   27.4483    0.3963 H         1 UNK         0.0940 
     88 H88        29.1637   28.0842   -2.6017 H         1 UNK         0.0703 
     89 H89        27.4903   26.4738   -0.8880 H         1 UNK         0.3081 
     90 H90        24.6945   26.3460   -3.1170 H         1 UNK         0.0719 
     91 H91        26.2735   24.6177   -3.9590 H         1 UNK         0.0809 
     92 H92        26.8005   24.2585   -2.3194 H         1 UNK         0.0809 
     93 H93        25.1448   23.9099   -2.8133 H         1 UNK         0.0809 
     94 H94        25.6968   25.4800   -0.4442 H         1 UNK         0.2990 
     95 H95        24.1671   27.3522    1.4171 H         1 UNK         0.0690 
     96 H96        22.1107   26.2446    2.3556 H         1 UNK         0.0788 
     97 H97        21.7832   25.5367    0.7740 H         1 UNK         0.0788 
     98 H98        21.7522   27.2790    0.9840 H         1 UNK         0.0788 
     99 H99        25.2868   25.5963    2.1407 H         1 UNK         0.2993 
    100 H100       25.0861   22.5047    2.5409 H         1 UNK         0.0949 
    101 H101       26.4000   22.6303   -0.2275 H         1 UNK         0.0767 
    102 H102       26.7520   21.4209    1.0043 H         1 UNK         0.0767 
    103 H103       25.1558   21.4968    0.2806 H         1 UNK         0.0767 
    104 H104       26.9711   23.4188    3.2424 H         1 UNK         0.3013 
    105 H105       29.6056   30.2855   -2.4680 H         1 UNK         0.3121 
    106 H106       27.5757   32.0930   -1.4035 H         1 UNK         0.0774 
    107 H107       30.3173   32.6460   -2.6692 H         1 UNK         0.0815 
    108 H108       28.7728   32.6189   -3.5221 H         1 UNK         0.0815 
    109 H109       29.0884   33.8506   -2.3119 H         1 UNK         0.0815 
    110 H110       30.6868   30.8065   -0.3771 H         1 UNK         0.2987 
    111 H111       31.0962   32.5856    1.8824 H         1 UNK         0.0949 
    112 H112       33.0071   31.4059    0.7849 H         1 UNK         0.0806 
    113 H113       32.8710   30.9074    2.4622 H         1 UNK         0.0806 
    114 H114       32.3033   29.8405    1.1897 H         1 UNK         0.0806 
    115 H115       30.8661   32.0065    4.1005 H         1 UNK         0.3010 
    116 H116       29.0977   29.7300    4.8021 H         1 UNK         0.0829 
    117 H117       28.7771   32.6311    5.7668 H         1 UNK         0.0813 
    118 H118       27.8684   31.2451    6.3560 H         1 UNK         0.0813 
    119 H119       27.6619   31.7831    4.6968 H         1 UNK         0.0813 
    120 H120       29.4938   28.9771    6.8838 H         1 UNK         0.3038 
    121 H121       30.5066   28.3597    8.7022 H         1 UNK         0.0769 
    122 H122       31.5864   30.0072   10.2002 H         1 UNK         0.0811 
    123 H123       30.1029   30.6613    9.5256 H         1 UNK         0.0811 
    124 H124       31.6662   31.1866    8.9024 H         1 UNK         0.0811 
    125 H125       32.8553   30.0411    6.6100 H         1 UNK         0.3204 
    126 H126       34.9219   27.9570    7.2452 H         1 UNK         0.0748 
    127 H127       35.3366   30.9317    6.5843 H         1 UNK         0.0771 
    128 H128       35.5619   30.2014    8.1723 H         1 UNK         0.0771 
    129 H129       36.6137   29.7482    6.8416 H         1 UNK         0.0771 
    130 H130       36.2074   27.2977    5.4823 H         1 UNK         0.2980 
    131 H131       34.8087   27.2176    2.9680 H         1 UNK         0.0545 
    132 H132       37.4542   30.1555    2.4312 H         1 UNK         0.3459 
    133 H133       36.9369   29.6506    4.0206 H         1 UNK         0.3459 
    134 H134       37.5523   26.0221    3.5661 H         1 UNK         0.0616 
    135 H135       36.4860   25.5786    2.2607 H         1 UNK         0.0616 
    136 H136       34.0436   23.0457    3.8013 H         1 UNK         0.0634 
    137 H137       35.0421   23.4073    2.4105 H         1 UNK         0.0634 
@<TRIPOS>BOND
     1    1    2 1    
     2    1   72 1    
     3    1   73 1    
     4    1   74 1    
     5    2    3 2    
     6    2    4 am   BACKBONE|DICT|INTERRES
     7    4    5 1    
     8    4   75 1    
     9    5    6 1    
    10    5   35 1    
    11    5   76 1    
    12    6    7 1    
    13    6   77 1    
    14    6   78 1    
    15    7    8 1    
    16    8    9 1    
    17    8   79 1    
    18    8   80 1    
    19    9   10 ar   
    20    9   14 ar   
    21   10   11 ar   
    22   10   81 1    
    23   11   12 ar   
    24   11   71 1    
    25   12   13 ar   
    26   12   82 1    
    27   13   14 ar   
    28   13   15 1    
    29   14   83 1    
    30   15   16 1    
    31   15   84 1    
    32   15   85 1    
    33   16   17 1    
    34   17   18 1    
    35   17   86 1    
    36   17   87 1    
    37   18   19 1    
    38   18   37 1    
    39   18   88 1    
    40   19   20 am   BACKBONE|DICT|INTERRES
    41   19   89 1    
    42   20   21 2    
    43   20   22 1    
    44   22   23 1    
    45   22   24 1    
    46   22   90 1    
    47   23   91 1    
    48   23   92 1    
    49   23   93 1    
    50   24   25 am   BACKBONE|DICT|INTERRES
    51   24   94 1    
    52   25   26 2    
    53   25   27 1    
    54   27   28 1    
    55   27   29 1    
    56   27   95 1    
    57   28   96 1    
    58   28   97 1    
    59   28   98 1    
    60   29   30 am   BACKBONE|DICT|INTERRES
    61   29   99 1    
    62   30   31 2    
    63   30   32 1    
    64   32   33 1    
    65   32   34 1    
    66   32  100 1    
    67   33  101 1    
    68   33  102 1    
    69   33  103 1    
    70   34   35 am   BACKBONE|DICT|INTERRES
    71   34  104 1    
    72   35   36 2    
    73   37   38 2    
    74   37   39 am   BACKBONE|DICT|INTERRES
    75   39   40 1    
    76   39  105 1    
    77   40   41 1    
    78   40   42 1    
    79   40  106 1    
    80   41  107 1    
    81   41  108 1    
    82   41  109 1    
    83   42   43 2    
    84   42   44 am   BACKBONE|DICT|INTERRES
    85   44   45 1    
    86   44  110 1    
    87   45   46 1    
    88   45   47 1    
    89   45  111 1    
    90   46  112 1    
    91   46  113 1    
    92   46  114 1    
    93   47   48 2    
    94   47   49 am   BACKBONE|DICT|INTERRES
    95   49   50 1    
    96   49  115 1    
    97   50   51 1    
    98   50   52 1    
    99   50  116 1    
   100   51  117 1    
   101   51  118 1    
   102   51  119 1    
   103   52   53 2    
   104   52   54 am   BACKBONE|DICT|INTERRES
   105   54   55 1    
   106   54  120 1    
   107   55   56 1    
   108   55   57 1    
   109   55  121 1    
   110   56  122 1    
   111   56  123 1    
   112   56  124 1    
   113   57   58 2    
   114   57   59 am   BACKBONE|DICT|INTERRES
   115   59   60 1    
   116   59  125 1    
   117   60   61 1    
   118   60   62 1    
   119   60  126 1    
   120   61  127 1    
   121   61  128 1    
   122   61  129 1    
   123   62   63 2    
   124   62   64 am   BACKBONE|DICT|INTERRES
   125   64   65 1    
   126   64  130 1    
   127   65   66 1    
   128   65   69 1    
   129   65  131 1    
   130   66   67 am   BACKBONE|DICT|INTERRES
   131   66   68 2    
   132   67  132 1    
   133   67  133 1    
   134   69   70 1    
   135   69  134 1    
   136   69  135 1    
   137   70   71 1    
   138   71  136 1    
   139   71  137 1    
@<TRIPOS>SUBSTRUCTURE
     1 UNK         1 GROUP             0       ****    0 ROOT    
