@<TRIPOS>MOLECULE
3R136
137   139    1
SMALL
USER_CHARGES


@<TRIPOS>ATOM
      1 CA         27.8937   22.5029   -3.3908 C.3       0 UNK        -0.1979 
      2 C          28.7201   22.5510   -2.1150 C.2       0 UNK         0.4864 
      3 O          28.4504   23.4006   -1.2650 O.2       0 UNK        -0.5359 
      4 N          29.7224   21.6635   -2.0056 N.am      1 UNK        -0.4318 
      5 CA         30.6843   21.4145   -0.9132 C.3       1 UNK         0.0824 
      6 C6         30.0998   20.6208    0.2905 C.3       12 UNK        -0.0944 
      7 S7         28.9421   21.5312    1.3704 S.3       12 UNK        -0.2672 
      8 C8         29.9551   21.7539    2.8738 C.3       12 UNK         0.0333 
      9 C9         29.3546   22.7318    3.8824 C.ar      12 UNK        -0.0807 
     10 C10        30.2026   23.5354    4.6516 C.ar      12 UNK        -0.0894 
     11 C11        29.6864   24.4504    5.5803 C.ar      12 UNK        -0.0804 
     12 C12        28.3004   24.5446    5.7409 C.ar      12 UNK        -0.0824 
     13 C13        27.4408   23.7351    4.9930 C.ar      12 UNK        -0.0762 
     14 C14        27.9731   22.8255    4.0773 C.ar      12 UNK        -0.0782 
     15 C15        25.9335   23.8353    5.1620 C.3       12 UNK         0.0230 
     16 S16        25.1514   24.5478    3.6815 S.3       12 UNK        -0.2608 
     17 C17        25.6968   26.2866    3.7818 C.3       12 UNK        -0.0989 
     18 CA         26.9544   26.6197    2.9225 C.3       5 UNK         0.0716 
     19 N          26.8573   26.1801    1.5247 N.am      5 UNK        -0.4135 
     20 C          25.9412   26.5647    0.6251 C.2       4 UNK         0.5031 
     21 O          25.0608   27.4005    0.8408 O.2       4 UNK        -0.5229 
     22 CA         26.0341   25.8716   -0.7473 C.3       4 UNK         0.0329 
     23 CB         24.9118   26.2869   -1.7234 C.3       4 UNK        -0.2001 
     24 N          27.3571   26.0316   -1.3596 N.am      4 UNK        -0.4303 
     25 C          27.9451   27.1781   -1.7364 C.2       3 UNK         0.5044 
     26 O          27.4148   28.2866   -1.6501 O.2       3 UNK        -0.5152 
     27 CA         29.3701   27.0529   -2.3169 C.3       3 UNK         0.0319 
     28 CB         30.0796   28.4109   -2.4973 C.3       3 UNK        -0.2001 
     29 N          30.2401   26.1272   -1.5812 N.am      3 UNK        -0.4354 
     30 C          30.5136   26.1215   -0.2670 C.2       2 UNK         0.4964 
     31 O          30.0012   26.8816    0.5578 O.2       2 UNK        -0.5047 
     32 CA         31.4911   25.0302    0.1862 C.3       2 UNK         0.0288 
     33 CB         31.8047   25.0718    1.6920 C.3       2 UNK        -0.2113 
     34 N          30.9078   23.7457   -0.1753 N.am      2 UNK        -0.4145 
     35 C          31.5528   22.6216   -0.4867 C.2       1 UNK         0.5006 
     36 O          32.7799   22.5106   -0.4645 O.2       1 UNK        -0.5103 
     37 C          27.3423   28.1107    3.0332 C.2       5 UNK         0.5055 
     38 O          26.7586   28.8385    3.8417 O.2       5 UNK        -0.5220 
     39 N          28.3114   28.5606    2.2232 N.am      6 UNK        -0.4450 
     40 CA         28.7568   29.9542    2.1762 C.3       6 UNK         0.0367 
     41 CB         29.4119   30.2341    0.8160 C.3       6 UNK        -0.1929 
     42 C          29.6894   30.2941    3.3506 C.2       6 UNK         0.5070 
     43 O          30.8879   30.4974    3.1523 O.2       6 UNK        -0.5237 
     44 N          29.1213   30.3763    4.5596 N.am      7 UNK        -0.4739 
     45 CA         29.8083   30.7231    5.8120 C.3       7 UNK         0.0276 
     46 CB         28.8159   30.5948    6.9780 C.3       7 UNK        -0.1927 
     47 C          30.4761   32.1132    5.8174 C.2       7 UNK         0.5013 
     48 O          31.3957   32.3400    6.6036 O.2       7 UNK        -0.5193 
     49 N          30.0117   33.0098    4.9384 N.am      8 UNK        -0.4253 
     50 CA         30.5830   34.3361    4.7060 C.3       8 UNK         0.0242 
     51 CB         29.4604   35.2719    4.2240 C.3       8 UNK        -0.2000 
     52 C          31.7518   34.3355    3.6992 C.2       8 UNK         0.4948 
     53 O          32.3726   35.3861    3.5272 O.2       8 UNK        -0.5275 
     54 N          32.0223   33.2044    3.0309 N.am      9 UNK        -0.4246 
     55 CA         33.0290   33.0839    1.9784 C.3       9 UNK         0.0261 
     56 CB         32.3867   33.3624    0.6025 C.3       9 UNK        -0.1959 
     57 C          33.7271   31.7220    2.0868 C.2       9 UNK         0.5033 
     58 O          34.5960   31.5679    2.9459 O.2       9 UNK        -0.5390 
     59 N          33.3531   30.7667    1.2227 N.am      10 UNK        -0.4215 
     60 CA         33.9844   29.4507    1.0594 C.3       10 UNK         0.0240 
     61 CB         33.2840   28.6878   -0.0765 C.3       10 UNK        -0.1982 
     62 C          34.0534   28.5770    2.3265 C.2       10 UNK         0.4970 
     63 O          34.9866   27.7806    2.4366 O.2       10 UNK        -0.4916 
     64 N          33.0971   28.7427    3.2482 N.am      11 UNK        -0.4279 
     65 CA         33.0866   28.1139    4.5774 C.3       11 UNK         0.1003 
     66 C          33.3382   29.1310    5.7302 C.2       11 UNK         0.5709 
     67 N          33.8023   30.3452    5.4608 N.am      11 UNK        -0.7358 
     68 O          33.1180   28.8185    6.8975 O.2       11 UNK        -0.4999 
     69 C69        31.8127   27.2421    4.7888 C.3       12 UNK        -0.0954 
     70 S70        32.2042   25.7336    5.7366 S.3       12 UNK        -0.2268 
     71 C71        30.5936   25.2977    6.4731 C.3       12 UNK         0.0203 
     72 H72        27.9675   23.4519   -3.9211 H         1 UNK         0.0888 
     73 H73        28.2222   21.7108   -4.0634 H         1 UNK         0.0888 
     74 H74        26.8455   22.3291   -3.1488 H         1 UNK         0.0888 
     75 H75        29.8590   21.0441   -2.7924 H         1 UNK         0.3017 
     76 H76        31.3971   20.7316   -1.3791 H         1 UNK         0.0873 
     77 H77        29.5721   19.7421   -0.0830 H         1 UNK         0.0745 
     78 H78        30.9148   20.2232    0.8982 H         1 UNK         0.0745 
     79 H79        30.9450   22.1007    2.5729 H         1 UNK         0.0705 
     80 H80        30.0936   20.7864    3.3579 H         1 UNK         0.0705 
     81 H81        31.2719   23.4387    4.5267 H         1 UNK         0.1334 
     82 H82        27.8896   25.2407    6.4596 H         1 UNK         0.1417 
     83 H83        27.3001   22.2010    3.5061 H         1 UNK         0.1562 
     84 H84        25.6700   24.4263    6.0406 H         1 UNK         0.0748 
     85 H85        25.5252   22.8378    5.3313 H         1 UNK         0.0748 
     86 H86        25.8775   26.5371    4.8288 H         1 UNK         0.0940 
     87 H87        24.8538   26.9086    3.4753 H         1 UNK         0.0940 
     88 H88        27.7973   26.0692    3.3415 H         1 UNK         0.0703 
     89 H89        27.5527   25.5088    1.2327 H         1 UNK         0.3081 
     90 H90        25.9169   24.8032   -0.5575 H         1 UNK         0.0719 
     91 H91        24.9332   27.3551   -1.9410 H         1 UNK         0.0809 
     92 H92        24.9899   25.7497   -2.6685 H         1 UNK         0.0809 
     93 H93        23.9306   26.0631   -1.3031 H         1 UNK         0.0809 
     94 H94        27.8897   25.1676   -1.4417 H         1 UNK         0.2990 
     95 H95        29.2409   26.6221   -3.3109 H         1 UNK         0.0690 
     96 H96        31.0334   28.2922   -3.0110 H         1 UNK         0.0788 
     97 H97        30.2773   28.8915   -1.5416 H         1 UNK         0.0788 
     98 H98        29.4770   29.0980   -3.0927 H         1 UNK         0.0788 
     99 H99        30.6878   25.4206   -2.1481 H         1 UNK         0.2993 
    100 H100       32.4221   25.1737   -0.3666 H         1 UNK         0.0949 
    101 H101       30.8975   25.0061    2.2931 H         1 UNK         0.0767 
    102 H102       32.4640   24.2560    1.9878 H         1 UNK         0.0767 
    103 H103       32.3097   26.0027    1.9487 H         1 UNK         0.0767 
    104 H104       29.8943   23.7275   -0.2976 H         1 UNK         0.3013 
    105 H105       28.7976   27.9096    1.6086 H         1 UNK         0.3121 
    106 H106       27.8829   30.6049    2.2514 H         1 UNK         0.0774 
    107 H107       29.6929   31.2831    0.7292 H         1 UNK         0.0815 
    108 H108       30.3112   29.6366    0.6775 H         1 UNK         0.0815 
    109 H109       28.7282   30.0146   -0.0035 H         1 UNK         0.0815 
    110 H110       28.1384   30.1286    4.6242 H         1 UNK         0.2987 
    111 H111       30.6032   29.9941    5.9649 H         1 UNK         0.0949 
    112 H112       28.4139   29.5838    7.0472 H         1 UNK         0.0806 
    113 H113       29.3011   30.8143    7.9302 H         1 UNK         0.0806 
    114 H114       27.9775   31.2843    6.8716 H         1 UNK         0.0806 
    115 H115       29.2432   32.7335    4.3450 H         1 UNK         0.3010 
    116 H116       30.9699   34.7280    5.6493 H         1 UNK         0.0829 
    117 H117       28.6478   35.3238    4.9490 H         1 UNK         0.0813 
    118 H118       29.8305   36.2887    4.0843 H         1 UNK         0.0813 
    119 H119       29.0420   34.9445    3.2714 H         1 UNK         0.0813 
    120 H120       31.5209   32.3497    3.2580 H         1 UNK         0.3038 
    121 H121       33.8139   33.8273    2.1343 H         1 UNK         0.0769 
    122 H122       33.1056   33.2216   -0.2060 H         1 UNK         0.0811 
    123 H123       32.0388   34.3937    0.5402 H         1 UNK         0.0811 
    124 H124       31.5297   32.7190    0.4071 H         1 UNK         0.0811 
    125 H125       32.6082   30.9866    0.5790 H         1 UNK         0.3204 
    126 H126       35.0153   29.6370    0.7516 H         1 UNK         0.0748 
    127 H127       33.7672   27.7267   -0.2587 H         1 UNK         0.0771 
    128 H128       32.2420   28.4847    0.1647 H         1 UNK         0.0771 
    129 H129       33.3123   29.2452   -1.0130 H         1 UNK         0.0771 
    130 H130       32.3676   29.4357    3.0905 H         1 UNK         0.2980 
    131 H131       33.9509   27.4509    4.6363 H         1 UNK         0.0545 
    132 H132       33.9317   30.9933    6.2208 H         1 UNK         0.3459 
    133 H133       34.0361   30.6299    4.5144 H         1 UNK         0.3459 
    134 H134       31.3886   26.9266    3.8363 H         1 UNK         0.0616 
    135 H135       31.0200   27.8034    5.2842 H         1 UNK         0.0616 
    136 H136       30.7849   24.7316    7.3853 H         1 UNK         0.0634 
    137 H137       30.0846   26.2117    6.7828 H         1 UNK         0.0634 
@<TRIPOS>BOND
     1    1    2 1    
     2    1   72 1    
     3    1   73 1    
     4    1   74 1    
     5    2    3 2    
     6    2    4 am   BACKBONE|DICT|INTERRES
     7    4    5 1    
     8    4   75 1    
     9    5    6 1    
    10    5   35 1    
    11    5   76 1    
    12    6    7 1    
    13    6   77 1    
    14    6   78 1    
    15    7    8 1    
    16    8    9 1    
    17    8   79 1    
    18    8   80 1    
    19    9   10 ar   
    20    9   14 ar   
    21   10   11 ar   
    22   10   81 1    
    23   11   12 ar   
    24   11   71 1    
    25   12   13 ar   
    26   12   82 1    
    27   13   14 ar   
    28   13   15 1    
    29   14   83 1    
    30   15   16 1    
    31   15   84 1    
    32   15   85 1    
    33   16   17 1    
    34   17   18 1    
    35   17   86 1    
    36   17   87 1    
    37   18   19 1    
    38   18   37 1    
    39   18   88 1    
    40   19   20 am   BACKBONE|DICT|INTERRES
    41   19   89 1    
    42   20   21 2    
    43   20   22 1    
    44   22   23 1    
    45   22   24 1    
    46   22   90 1    
    47   23   91 1    
    48   23   92 1    
    49   23   93 1    
    50   24   25 am   BACKBONE|DICT|INTERRES
    51   24   94 1    
    52   25   26 2    
    53   25   27 1    
    54   27   28 1    
    55   27   29 1    
    56   27   95 1    
    57   28   96 1    
    58   28   97 1    
    59   28   98 1    
    60   29   30 am   BACKBONE|DICT|INTERRES
    61   29   99 1    
    62   30   31 2    
    63   30   32 1    
    64   32   33 1    
    65   32   34 1    
    66   32  100 1    
    67   33  101 1    
    68   33  102 1    
    69   33  103 1    
    70   34   35 am   BACKBONE|DICT|INTERRES
    71   34  104 1    
    72   35   36 2    
    73   37   38 2    
    74   37   39 am   BACKBONE|DICT|INTERRES
    75   39   40 1    
    76   39  105 1    
    77   40   41 1    
    78   40   42 1    
    79   40  106 1    
    80   41  107 1    
    81   41  108 1    
    82   41  109 1    
    83   42   43 2    
    84   42   44 am   BACKBONE|DICT|INTERRES
    85   44   45 1    
    86   44  110 1    
    87   45   46 1    
    88   45   47 1    
    89   45  111 1    
    90   46  112 1    
    91   46  113 1    
    92   46  114 1    
    93   47   48 2    
    94   47   49 am   BACKBONE|DICT|INTERRES
    95   49   50 1    
    96   49  115 1    
    97   50   51 1    
    98   50   52 1    
    99   50  116 1    
   100   51  117 1    
   101   51  118 1    
   102   51  119 1    
   103   52   53 2    
   104   52   54 am   BACKBONE|DICT|INTERRES
   105   54   55 1    
   106   54  120 1    
   107   55   56 1    
   108   55   57 1    
   109   55  121 1    
   110   56  122 1    
   111   56  123 1    
   112   56  124 1    
   113   57   58 2    
   114   57   59 am   BACKBONE|DICT|INTERRES
   115   59   60 1    
   116   59  125 1    
   117   60   61 1    
   118   60   62 1    
   119   60  126 1    
   120   61  127 1    
   121   61  128 1    
   122   61  129 1    
   123   62   63 2    
   124   62   64 am   BACKBONE|DICT|INTERRES
   125   64   65 1    
   126   64  130 1    
   127   65   66 1    
   128   65   69 1    
   129   65  131 1    
   130   66   67 am   BACKBONE|DICT|INTERRES
   131   66   68 2    
   132   67  132 1    
   133   67  133 1    
   134   69   70 1    
   135   69  134 1    
   136   69  135 1    
   137   70   71 1    
   138   71  136 1    
   139   71  137 1    
@<TRIPOS>SUBSTRUCTURE
     1 UNK         1 GROUP             0       ****    0 ROOT    
