@<TRIPOS>MOLECULE
3R136
137   139    1
SMALL
USER_CHARGES


@<TRIPOS>ATOM
      1 CA         31.2672   21.6182   -5.5221 C.3       0 UNK        -0.1979 
      2 C          30.6309   22.5934   -4.5432 C.2       0 UNK         0.4864 
      3 O          30.3518   23.7369   -4.9097 O.2       0 UNK        -0.5359 
      4 N          30.3888   22.1539   -3.3006 N.am      1 UNK        -0.4318 
      5 CA         29.7690   22.9396   -2.2278 C.3       1 UNK         0.0824 
      6 C6         30.1867   22.4032   -0.8327 C.3       12 UNK        -0.0944 
      7 S7         29.9896   23.6578    0.4755 S.3       12 UNK        -0.2672 
      8 C8         31.2221   23.0920    1.6850 C.3       12 UNK         0.0333 
      9 C9         31.1755   23.9458    2.9419 C.ar      12 UNK        -0.0807 
     10 C10        31.9174   25.1271    3.0158 C.ar      12 UNK        -0.0894 
     11 C11        31.8632   25.9297    4.1591 C.ar      12 UNK        -0.0804 
     12 C12        31.0781   25.5309    5.2455 C.ar      12 UNK        -0.0824 
     13 C13        30.3219   24.3561    5.1773 C.ar      12 UNK        -0.0762 
     14 C14        30.3780   23.5658    4.0250 C.ar      12 UNK        -0.0782 
     15 C15        29.4283   23.9414    6.3367 C.3       12 UNK         0.0230 
     16 S16        27.6913   24.4065    6.0392 S.3       12 UNK        -0.2608 
     17 C17        27.7128   26.1991    6.3806 C.3       12 UNK        -0.0989 
     18 CA         27.8506   27.0600    5.1010 C.3       5 UNK         0.0716 
     19 N          26.7691   26.8313    4.1395 N.am      5 UNK        -0.4135 
     20 C          26.7109   27.3853    2.9215 C.2       4 UNK         0.5031 
     21 O          27.6041   28.0982    2.4509 O.2       4 UNK        -0.5229 
     22 CA         25.4037   27.1561    2.1420 C.3       4 UNK         0.0329 
     23 CB         24.2907   28.0637    2.6940 C.3       4 UNK        -0.2001 
     24 N          25.5453   27.4150    0.7079 N.am      4 UNK        -0.4303 
     25 C          26.2346   26.6466   -0.1433 C.2       3 UNK         0.5044 
     26 O          26.8124   25.6073    0.1810 O.2       3 UNK        -0.5152 
     27 CA         26.2843   27.1411   -1.6000 C.3       3 UNK         0.0319 
     28 CB         27.2992   28.2850   -1.7606 C.3       3 UNK        -0.2001 
     29 N          26.6432   26.0642   -2.5226 N.am      3 UNK        -0.4354 
     30 C          25.8082   25.1091   -2.9538 C.2       2 UNK         0.4964 
     31 O          24.6030   25.0837   -2.7001 O.2       2 UNK        -0.5047 
     32 CA         26.4202   23.9970   -3.8241 C.3       2 UNK         0.0288 
     33 CB         26.3133   24.3561   -5.3152 C.3       2 UNK        -0.2113 
     34 N          27.8227   23.7319   -3.4919 N.am      2 UNK        -0.4145 
     35 C          28.2371   23.0279   -2.4297 C.2       1 UNK         0.5006 
     36 O          27.4685   22.4378   -1.6672 O.2       1 UNK        -0.5103 
     37 C          27.9390   28.5557    5.4646 C.2       5 UNK         0.5055 
     38 O          26.9072   29.1772    5.7265 O.2       5 UNK        -0.5220 
     39 N          29.1646   29.0955    5.4331 N.am      6 UNK        -0.4450 
     40 CA         29.5383   30.5092    5.5903 C.3       6 UNK         0.0367 
     41 CB         29.0000   31.1148    6.9036 C.3       6 UNK        -0.1929 
     42 C          29.2140   31.3978    4.3692 C.2       6 UNK         0.5070 
     43 O          29.6645   32.5437    4.3427 O.2       6 UNK        -0.5237 
     44 N          28.4801   30.8771    3.3740 N.am      7 UNK        -0.4739 
     45 CA         28.2339   31.5389    2.0895 C.3       7 UNK         0.0276 
     46 CB         26.7764   31.3132    1.6535 C.3       7 UNK        -0.1927 
     47 C          29.2086   31.0282    1.0176 C.2       7 UNK         0.5013 
     48 O          29.6709   31.8243    0.2002 O.2       7 UNK        -0.5193 
     49 N          29.5151   29.7212    1.0492 N.am      8 UNK        -0.4253 
     50 CA         30.4665   29.0460    0.1595 C.3       8 UNK         0.0242 
     51 CB         30.4326   27.5342    0.4448 C.3       8 UNK        -0.2000 
     52 C          31.9065   29.5788    0.2706 C.2       8 UNK         0.4948 
     53 O          32.5915   29.6915   -0.7467 O.2       8 UNK        -0.5275 
     54 N          32.3232   29.9071    1.4971 N.am      9 UNK        -0.4246 
     55 CA         33.6021   30.4995    1.8762 C.3       9 UNK         0.0261 
     56 CB         34.7652   29.5078    1.6636 C.3       9 UNK        -0.1959 
     57 C          33.4876   30.9065    3.3496 C.2       9 UNK         0.5033 
     58 O          32.5543   30.4707    4.0308 O.2       9 UNK        -0.5390 
     59 N          34.4412   31.7090    3.8345 N.am      10 UNK        -0.4215 
     60 CA         34.5130   32.1823    5.2206 C.3       10 UNK         0.0240 
     61 CB         35.3623   33.4672    5.2641 C.3       10 UNK        -0.1982 
     62 C          35.0314   31.0937    6.1847 C.2       10 UNK         0.4970 
     63 O          36.0832   31.2682    6.8030 O.2       10 UNK        -0.4916 
     64 N          34.2903   29.9837    6.2843 N.am      11 UNK        -0.4279 
     65 CA         34.5965   28.8372    7.1588 C.3       11 UNK         0.1003 
     66 C          34.3640   29.0980    8.6763 C.2       11 UNK         0.5709 
     67 N          33.6879   30.1696    9.0744 N.am      11 UNK        -0.7358 
     68 O          34.8132   28.3140    9.5091 O.2       11 UNK        -0.4999 
     69 C69        33.8683   27.5423    6.7072 C.3       12 UNK        -0.0954 
     70 S70        34.2485   27.0836    4.9819 S.3       12 UNK        -0.2268 
     71 C71        32.6204   27.2463    4.1900 C.3       12 UNK         0.0203 
     72 H72        32.2125   22.0180   -5.8878 H         1 UNK         0.0888 
     73 H73        31.4636   20.6493   -5.0634 H         1 UNK         0.0888 
     74 H74        30.6093   21.4623   -6.3766 H         1 UNK         0.0888 
     75 H75        30.6082   21.1957   -3.0670 H         1 UNK         0.3017 
     76 H76        30.1558   23.9586   -2.3084 H         1 UNK         0.0873 
     77 H77        29.6389   21.4988   -0.5609 H         1 UNK         0.0745 
     78 H78        31.2400   22.1183   -0.8541 H         1 UNK         0.0745 
     79 H79        32.2174   23.1346    1.2396 H         1 UNK         0.0705 
     80 H80        31.0356   22.0456    1.9319 H         1 UNK         0.0705 
     81 H81        32.5219   25.4317    2.1721 H         1 UNK         0.1334 
     82 H82        31.0349   26.1454    6.1336 H         1 UNK         0.1417 
     83 H83        29.7871   22.6616    3.9659 H         1 UNK         0.1562 
     84 H84        29.7778   24.3742    7.2753 H         1 UNK         0.0748 
     85 H85        29.4830   22.8594    6.4662 H         1 UNK         0.0748 
     86 H86        28.5212   26.4169    7.0813 H         1 UNK         0.0940 
     87 H87        26.7899   26.4501    6.9077 H         1 UNK         0.0940 
     88 H88        28.7720   26.7785    4.5901 H         1 UNK         0.0703 
     89 H89        25.9940   26.2753    4.4681 H         1 UNK         0.3081 
     90 H90        25.1060   26.1133    2.2716 H         1 UNK         0.0719 
     91 H91        24.5441   29.1200    2.5942 H         1 UNK         0.0809 
     92 H92        23.3460   27.8944    2.1768 H         1 UNK         0.0809 
     93 H93        24.1137   27.8738    3.7535 H         1 UNK         0.0809 
     94 H94        25.1271   28.2658    0.3622 H         1 UNK         0.2990 
     95 H95        25.2936   27.5169   -1.8654 H         1 UNK         0.0690 
     96 H96        27.2296   28.7364   -2.7505 H         1 UNK         0.0788 
     97 H97        28.3203   27.9303   -1.6304 H         1 UNK         0.0788 
     98 H98        27.1314   29.0787   -1.0311 H         1 UNK         0.0788 
     99 H99        27.6214   25.9766   -2.7519 H         1 UNK         0.2993 
    100 H100       25.8419   23.0867   -3.6497 H         1 UNK         0.0949 
    101 H101       26.8807   25.2560   -5.5566 H         1 UNK         0.0767 
    102 H102       26.6839   23.5469   -5.9448 H         1 UNK         0.0767 
    103 H103       25.2757   24.5379   -5.5992 H         1 UNK         0.0767 
    104 H104       28.5334   24.0971   -4.1193 H         1 UNK         0.3013 
    105 H105       29.9321   28.4899    5.1820 H         1 UNK         0.3121 
    106 H106       30.6244   30.5084    5.6766 H         1 UNK         0.0774 
    107 H107       29.4460   32.0928    7.0883 H         1 UNK         0.0815 
    108 H108       27.9198   31.2585    6.8773 H         1 UNK         0.0815 
    109 H109       29.2374   30.4845    7.7605 H         1 UNK         0.0815 
    110 H110       28.1339   29.9295    3.4634 H         1 UNK         0.2987 
    111 H111       28.3859   32.6161    2.1894 H         1 UNK         0.0949 
    112 H112       26.5582   31.8626    0.7368 H         1 UNK         0.0806 
    113 H113       26.5635   30.2632    1.4571 H         1 UNK         0.0806 
    114 H114       26.0770   31.6606    2.4140 H         1 UNK         0.0806 
    115 H115       28.9966   29.1259    1.6907 H         1 UNK         0.3010 
    116 H116       30.1368   29.2172   -0.8666 H         1 UNK         0.0829 
    117 H117       29.4335   27.1191    0.3111 H         1 UNK         0.0813 
    118 H118       31.1014   26.9910   -0.2240 H         1 UNK         0.0813 
    119 H119       30.7403   27.3119    1.4666 H         1 UNK         0.0813 
    120 H120       31.6855   29.8175    2.2796 H         1 UNK         0.3038 
    121 H121       33.7619   31.3972    1.2759 H         1 UNK         0.0769 
    122 H122       35.7193   29.9533    1.9464 H         1 UNK         0.0811 
    123 H123       34.8550   29.2088    0.6196 H         1 UNK         0.0811 
    124 H124       34.6444   28.6030    2.2581 H         1 UNK         0.0811 
    125 H125       35.1935   31.9939    3.2235 H         1 UNK         0.3204 
    126 H126       33.5051   32.4457    5.5499 H         1 UNK         0.0748 
    127 H127       35.4099   33.8706    6.2766 H         1 UNK         0.0771 
    128 H128       36.3869   33.2876    4.9356 H         1 UNK         0.0771 
    129 H129       34.9376   34.2449    4.6290 H         1 UNK         0.0771 
    130 H130       33.4683   29.9095    5.6943 H         1 UNK         0.2980 
    131 H131       35.6671   28.6468    7.0612 H         1 UNK         0.0545 
    132 H132       33.3160   30.8196    8.4017 H         1 UNK         0.3459 
    133 H133       33.5499   30.3271   10.0602 H         1 UNK         0.3459 
    134 H134       32.7912   27.6491    6.8415 H         1 UNK         0.0616 
    135 H135       34.1663   26.6997    7.3338 H         1 UNK         0.0616 
    136 H136       32.7639   27.6061    3.1716 H         1 UNK         0.0634 
    137 H137       32.0272   28.0090    4.6930 H         1 UNK         0.0634 
@<TRIPOS>BOND
     1    1    2 1    
     2    1   72 1    
     3    1   73 1    
     4    1   74 1    
     5    2    3 2    
     6    2    4 am   BACKBONE|DICT|INTERRES
     7    4    5 1    
     8    4   75 1    
     9    5    6 1    
    10    5   35 1    
    11    5   76 1    
    12    6    7 1    
    13    6   77 1    
    14    6   78 1    
    15    7    8 1    
    16    8    9 1    
    17    8   79 1    
    18    8   80 1    
    19    9   10 ar   
    20    9   14 ar   
    21   10   11 ar   
    22   10   81 1    
    23   11   12 ar   
    24   11   71 1    
    25   12   13 ar   
    26   12   82 1    
    27   13   14 ar   
    28   13   15 1    
    29   14   83 1    
    30   15   16 1    
    31   15   84 1    
    32   15   85 1    
    33   16   17 1    
    34   17   18 1    
    35   17   86 1    
    36   17   87 1    
    37   18   19 1    
    38   18   37 1    
    39   18   88 1    
    40   19   20 am   BACKBONE|DICT|INTERRES
    41   19   89 1    
    42   20   21 2    
    43   20   22 1    
    44   22   23 1    
    45   22   24 1    
    46   22   90 1    
    47   23   91 1    
    48   23   92 1    
    49   23   93 1    
    50   24   25 am   BACKBONE|DICT|INTERRES
    51   24   94 1    
    52   25   26 2    
    53   25   27 1    
    54   27   28 1    
    55   27   29 1    
    56   27   95 1    
    57   28   96 1    
    58   28   97 1    
    59   28   98 1    
    60   29   30 am   BACKBONE|DICT|INTERRES
    61   29   99 1    
    62   30   31 2    
    63   30   32 1    
    64   32   33 1    
    65   32   34 1    
    66   32  100 1    
    67   33  101 1    
    68   33  102 1    
    69   33  103 1    
    70   34   35 am   BACKBONE|DICT|INTERRES
    71   34  104 1    
    72   35   36 2    
    73   37   38 2    
    74   37   39 am   BACKBONE|DICT|INTERRES
    75   39   40 1    
    76   39  105 1    
    77   40   41 1    
    78   40   42 1    
    79   40  106 1    
    80   41  107 1    
    81   41  108 1    
    82   41  109 1    
    83   42   43 2    
    84   42   44 am   BACKBONE|DICT|INTERRES
    85   44   45 1    
    86   44  110 1    
    87   45   46 1    
    88   45   47 1    
    89   45  111 1    
    90   46  112 1    
    91   46  113 1    
    92   46  114 1    
    93   47   48 2    
    94   47   49 am   BACKBONE|DICT|INTERRES
    95   49   50 1    
    96   49  115 1    
    97   50   51 1    
    98   50   52 1    
    99   50  116 1    
   100   51  117 1    
   101   51  118 1    
   102   51  119 1    
   103   52   53 2    
   104   52   54 am   BACKBONE|DICT|INTERRES
   105   54   55 1    
   106   54  120 1    
   107   55   56 1    
   108   55   57 1    
   109   55  121 1    
   110   56  122 1    
   111   56  123 1    
   112   56  124 1    
   113   57   58 2    
   114   57   59 am   BACKBONE|DICT|INTERRES
   115   59   60 1    
   116   59  125 1    
   117   60   61 1    
   118   60   62 1    
   119   60  126 1    
   120   61  127 1    
   121   61  128 1    
   122   61  129 1    
   123   62   63 2    
   124   62   64 am   BACKBONE|DICT|INTERRES
   125   64   65 1    
   126   64  130 1    
   127   65   66 1    
   128   65   69 1    
   129   65  131 1    
   130   66   67 am   BACKBONE|DICT|INTERRES
   131   66   68 2    
   132   67  132 1    
   133   67  133 1    
   134   69   70 1    
   135   69  134 1    
   136   69  135 1    
   137   70   71 1    
   138   71  136 1    
   139   71  137 1    
@<TRIPOS>SUBSTRUCTURE
     1 UNK         1 GROUP             0       ****    0 ROOT    
