@<TRIPOS>MOLECULE
3R136
137   139    1
SMALL
USER_CHARGES


@<TRIPOS>ATOM
      1 CA         30.2909   25.0093   -3.7134 C.3       0 UNK        -0.1979 
      2 C          29.6509   24.4959   -2.4336 C.2       0 UNK         0.4864 
      3 O          28.5342   24.8980   -2.1069 O.2       0 UNK        -0.5359 
      4 N          30.3352   23.5926   -1.7187 N.am      1 UNK        -0.4318 
      5 CA         29.9767   23.0258   -0.4054 C.3       1 UNK         0.0824 
      6 C6         31.0679   22.0358    0.0733 C.3       12 UNK        -0.0944 
      7 S7         32.6606   22.8695    0.3886 S.3       12 UNK        -0.2672 
      8 C8         32.8241   22.6960    2.1951 C.3       12 UNK         0.0333 
      9 C9         31.9465   23.6809    2.9571 C.ar      12 UNK        -0.0807 
     10 C10        32.4632   24.9178    3.3549 C.ar      12 UNK        -0.0894 
     11 C11        31.6852   25.8159    4.1008 C.ar      12 UNK        -0.0804 
     12 C12        30.3761   25.4559    4.4378 C.ar      12 UNK        -0.0824 
     13 C13        29.8408   24.2319    4.0297 C.ar      12 UNK        -0.0762 
     14 C14        30.6329   23.3456    3.2963 C.ar      12 UNK        -0.0782 
     15 C15        28.4122   23.8539    4.3878 C.3       12 UNK         0.0230 
     16 S16        27.2292   24.5061    3.1676 S.3       12 UNK        -0.2608 
     17 C17        26.7070   26.0871    3.9181 C.3       12 UNK        -0.0989 
     18 CA         27.3338   27.3447    3.2623 C.3       5 UNK         0.0716 
     19 N          27.2498   27.3005    1.7969 N.am      5 UNK        -0.4135 
     20 C          27.6444   28.2453    0.9328 C.2       4 UNK         0.5031 
     21 O          28.0885   29.3407    1.2769 O.2       4 UNK        -0.5229 
     22 CA         27.5267   27.9410   -0.5711 C.3       4 UNK         0.0329 
     23 CB         28.9214   27.9406   -1.2184 C.3       4 UNK        -0.2001 
     24 N          26.8338   26.6877   -0.9027 N.am      4 UNK        -0.4303 
     25 C          25.5175   26.4808   -0.7506 C.2       3 UNK         0.5044 
     26 O          24.7697   27.3061   -0.2239 O.2       3 UNK        -0.5152 
     27 CA         24.9086   25.1623   -1.2568 C.3       3 UNK         0.0319 
     28 CB         24.1981   25.3849   -2.6049 C.3       3 UNK        -0.2001 
     29 N          25.8556   24.0448   -1.3809 N.am      3 UNK        -0.4354 
     30 C          25.5011   22.7578   -1.2198 C.2       2 UNK         0.4964 
     31 O          24.3753   22.4042   -0.8651 O.2       2 UNK        -0.5047 
     32 CA         26.5378   21.6596   -1.5335 C.3       2 UNK         0.0288 
     33 CB         26.2887   21.0769   -2.9348 C.3       2 UNK        -0.2113 
     34 N          27.9227   22.1179   -1.4533 N.am      2 UNK        -0.4145 
     35 C          28.5793   22.3653   -0.3127 C.2       1 UNK         0.5006 
     36 O          28.1203   22.0938    0.7970 O.2       1 UNK        -0.5103 
     37 C          26.7130   28.6089    3.8967 C.2       5 UNK         0.5055 
     38 O          27.2049   29.0683    4.9277 O.2       5 UNK        -0.5220 
     39 N          25.6477   29.1398    3.2775 N.am      6 UNK        -0.4450 
     40 CA         24.9552   30.3578    3.7046 C.3       6 UNK         0.0367 
     41 CB         23.6047   30.4518    2.9763 C.3       6 UNK        -0.1929 
     42 C          25.7756   31.6418    3.4814 C.2       6 UNK         0.5070 
     43 O          25.6013   32.6002    4.2347 O.2       6 UNK        -0.5237 
     44 N          26.6414   31.6465    2.4592 N.am      7 UNK        -0.4739 
     45 CA         27.5603   32.7461    2.1582 C.3       7 UNK         0.0276 
     46 CB         27.7413   32.8598    0.6351 C.3       7 UNK        -0.1927 
     47 C          28.9133   32.5325    2.8527 C.2       7 UNK         0.5013 
     48 O          29.4520   33.4786    3.4294 O.2       7 UNK        -0.5193 
     49 N          29.4117   31.2885    2.7943 N.am      8 UNK        -0.4253 
     50 CA         30.6837   30.7978    3.3299 C.3       8 UNK         0.0242 
     51 CB         30.6873   30.8664    4.8748 C.3       8 UNK        -0.2000 
     52 C          31.9164   31.4607    2.6789 C.2       8 UNK         0.4948 
     53 O          31.8122   32.0600    1.6055 O.2       8 UNK        -0.5275 
     54 N          33.0730   31.2960    3.3257 N.am      9 UNK        -0.4246 
     55 CA         34.3951   31.7766    2.9353 C.3       9 UNK         0.0261 
     56 CB         34.8951   31.0466    1.6655 C.3       9 UNK        -0.1959 
     57 C          35.3108   31.5716    4.1538 C.2       9 UNK         0.5033 
     58 O          34.8171   31.5714    5.2859 O.2       9 UNK        -0.5390 
     59 N          36.6091   31.3281    3.9193 N.am      10 UNK        -0.4215 
     60 CA         37.6118   30.9794    4.9387 C.3       10 UNK         0.0240 
     61 CB         38.9906   30.8615    4.2684 C.3       10 UNK        -0.1982 
     62 C          37.2911   29.6998    5.7420 C.2       10 UNK         0.4970 
     63 O          37.8259   29.5256    6.8375 O.2       10 UNK        -0.4916 
     64 N          36.4090   28.8518    5.1987 N.am      11 UNK        -0.4279 
     65 CA         35.7543   27.7273    5.8785 C.3       11 UNK         0.1003 
     66 C          34.8405   28.1201    7.0793 C.2       11 UNK         0.5709 
     67 N          34.4154   29.3716    7.2195 N.am      11 UNK        -0.7358 
     68 O          34.5166   27.2677    7.9026 O.2       11 UNK        -0.4999 
     69 C69        34.9990   26.8329    4.8579 C.3       12 UNK        -0.0954 
     70 S70        33.7728   27.7469    3.8502 S.3       12 UNK        -0.2268 
     71 C71        32.1996   27.1755    4.5810 C.3       12 UNK         0.0203 
     72 H72        30.4457   26.0857   -3.6467 H         1 UNK         0.0888 
     73 H73        31.2548   24.5384   -3.9055 H         1 UNK         0.0888 
     74 H74        29.6393   24.8107   -4.5637 H         1 UNK         0.0888 
     75 H75        31.2442   23.3069   -2.0549 H         1 UNK         0.3017 
     76 H76        29.9452   23.8632    0.2953 H         1 UNK         0.0873 
     77 H77        31.2301   21.2598   -0.6772 H         1 UNK         0.0745 
     78 H78        30.7603   21.5044    0.9745 H         1 UNK         0.0745 
     79 H79        32.5953   21.6716    2.4928 H         1 UNK         0.0705 
     80 H80        33.8700   22.8550    2.4622 H         1 UNK         0.0705 
     81 H81        33.4799   25.1627    3.0851 H         1 UNK         0.1334 
     82 H82        29.7675   26.1339    5.0204 H         1 UNK         0.1417 
     83 H83        30.2220   22.3922    2.9952 H         1 UNK         0.1562 
     84 H84        28.1653   24.1959    5.3935 H         1 UNK         0.0748 
     85 H85        28.3130   22.7675    4.4120 H         1 UNK         0.0748 
     86 H86        26.9196   26.0739    4.9887 H         1 UNK         0.0940 
     87 H87        25.6183   26.1234    3.8376 H         1 UNK         0.0940 
     88 H88        28.3981   27.3647    3.5005 H         1 UNK         0.0703 
     89 H89        26.9137   26.4293    1.4134 H         1 UNK         0.3081 
     90 H90        26.9550   28.7606   -1.0115 H         1 UNK         0.0719 
     91 H91        29.5577   27.1597   -0.8003 H         1 UNK         0.0809 
     92 H92        28.8593   27.7856   -2.2956 H         1 UNK         0.0809 
     93 H93        29.4294   28.8930   -1.0595 H         1 UNK         0.0809 
     94 H94        27.4097   25.9780   -1.3547 H         1 UNK         0.2990 
     95 H95        24.1505   24.8977   -0.5164 H         1 UNK         0.0690 
     96 H96        23.4914   26.2140   -2.5462 H         1 UNK         0.0788 
     97 H97        23.6333   24.5029   -2.9077 H         1 UNK         0.0788 
     98 H98        24.9097   25.6161   -3.3985 H         1 UNK         0.0788 
     99 H99        26.8057   24.2650   -1.6688 H         1 UNK         0.2993 
    100 H100       26.3964   20.8609   -0.8017 H         1 UNK         0.0949 
    101 H101       26.9653   20.2487   -3.1465 H         1 UNK         0.0767 
    102 H102       25.2714   20.6924   -3.0227 H         1 UNK         0.0767 
    103 H103       26.4213   21.8286   -3.7142 H         1 UNK         0.0767 
    104 H104       28.3676   22.3834   -2.3198 H         1 UNK         0.3013 
    105 H105       25.3090   28.6917    2.4372 H         1 UNK         0.3121 
    106 H106       24.7595   30.2770    4.7762 H         1 UNK         0.0774 
    107 H107       23.0531   31.3389    3.2911 H         1 UNK         0.0815 
    108 H108       23.7320   30.5142    1.8947 H         1 UNK         0.0815 
    109 H109       22.9755   29.5881    3.1921 H         1 UNK         0.0815 
    110 H110       26.7740   30.7918    1.9310 H         1 UNK         0.2987 
    111 H111       27.1422   33.6890    2.5185 H         1 UNK         0.0949 
    112 H112       28.1530   31.9464    0.2037 H         1 UNK         0.0806 
    113 H113       26.7931   33.0667    0.1387 H         1 UNK         0.0806 
    114 H114       28.4232   33.6736    0.3848 H         1 UNK         0.0806 
    115 H115       28.8933   30.6051    2.2440 H         1 UNK         0.3010 
    116 H116       30.7255   29.7472    3.0410 H         1 UNK         0.0829 
    117 H117       30.7651   31.8934    5.2335 H         1 UNK         0.0813 
    118 H118       29.7726   30.4398    5.2875 H         1 UNK         0.0813 
    119 H119       31.5170   30.3044    5.3046 H         1 UNK         0.0813 
    120 H120       33.0663   30.8527    4.2361 H         1 UNK         0.3038 
    121 H121       34.3332   32.8487    2.7401 H         1 UNK         0.0769 
    122 H122       35.0231   29.9771    1.8380 H         1 UNK         0.0811 
    123 H123       35.8479   31.4479    1.3195 H         1 UNK         0.0811 
    124 H124       34.1982   31.1611    0.8356 H         1 UNK         0.0811 
    125 H125       36.9296   31.3406    2.9615 H         1 UNK         0.3204 
    126 H126       37.6477   31.8030    5.6549 H         1 UNK         0.0748 
    127 H127       39.7648   30.6350    5.0033 H         1 UNK         0.0771 
    128 H128       39.0096   30.0677    3.5206 H         1 UNK         0.0771 
    129 H129       39.2763   31.7930    3.7791 H         1 UNK         0.0771 
    130 H130       36.0283   29.0790    4.2932 H         1 UNK         0.2980 
    131 H131       36.5535   27.1202    6.3075 H         1 UNK         0.0545 
    132 H132       33.8326   29.6045    8.0069 H         1 UNK         0.3459 
    133 H133       34.6633   30.0905    6.5473 H         1 UNK         0.3459 
    134 H134       35.7182   26.3873    4.1692 H         1 UNK         0.0616 
    135 H135       34.5189   25.9903    5.3590 H         1 UNK         0.0616 
    136 H136       32.2934   27.1588    5.6676 H         1 UNK         0.0634 
    137 H137       31.4428   27.9256    4.3540 H         1 UNK         0.0634 
@<TRIPOS>BOND
     1    1    2 1    
     2    1   72 1    
     3    1   73 1    
     4    1   74 1    
     5    2    3 2    
     6    2    4 am   BACKBONE|DICT|INTERRES
     7    4    5 1    
     8    4   75 1    
     9    5    6 1    
    10    5   35 1    
    11    5   76 1    
    12    6    7 1    
    13    6   77 1    
    14    6   78 1    
    15    7    8 1    
    16    8    9 1    
    17    8   79 1    
    18    8   80 1    
    19    9   10 ar   
    20    9   14 ar   
    21   10   11 ar   
    22   10   81 1    
    23   11   12 ar   
    24   11   71 1    
    25   12   13 ar   
    26   12   82 1    
    27   13   14 ar   
    28   13   15 1    
    29   14   83 1    
    30   15   16 1    
    31   15   84 1    
    32   15   85 1    
    33   16   17 1    
    34   17   18 1    
    35   17   86 1    
    36   17   87 1    
    37   18   19 1    
    38   18   37 1    
    39   18   88 1    
    40   19   20 am   BACKBONE|DICT|INTERRES
    41   19   89 1    
    42   20   21 2    
    43   20   22 1    
    44   22   23 1    
    45   22   24 1    
    46   22   90 1    
    47   23   91 1    
    48   23   92 1    
    49   23   93 1    
    50   24   25 am   BACKBONE|DICT|INTERRES
    51   24   94 1    
    52   25   26 2    
    53   25   27 1    
    54   27   28 1    
    55   27   29 1    
    56   27   95 1    
    57   28   96 1    
    58   28   97 1    
    59   28   98 1    
    60   29   30 am   BACKBONE|DICT|INTERRES
    61   29   99 1    
    62   30   31 2    
    63   30   32 1    
    64   32   33 1    
    65   32   34 1    
    66   32  100 1    
    67   33  101 1    
    68   33  102 1    
    69   33  103 1    
    70   34   35 am   BACKBONE|DICT|INTERRES
    71   34  104 1    
    72   35   36 2    
    73   37   38 2    
    74   37   39 am   BACKBONE|DICT|INTERRES
    75   39   40 1    
    76   39  105 1    
    77   40   41 1    
    78   40   42 1    
    79   40  106 1    
    80   41  107 1    
    81   41  108 1    
    82   41  109 1    
    83   42   43 2    
    84   42   44 am   BACKBONE|DICT|INTERRES
    85   44   45 1    
    86   44  110 1    
    87   45   46 1    
    88   45   47 1    
    89   45  111 1    
    90   46  112 1    
    91   46  113 1    
    92   46  114 1    
    93   47   48 2    
    94   47   49 am   BACKBONE|DICT|INTERRES
    95   49   50 1    
    96   49  115 1    
    97   50   51 1    
    98   50   52 1    
    99   50  116 1    
   100   51  117 1    
   101   51  118 1    
   102   51  119 1    
   103   52   53 2    
   104   52   54 am   BACKBONE|DICT|INTERRES
   105   54   55 1    
   106   54  120 1    
   107   55   56 1    
   108   55   57 1    
   109   55  121 1    
   110   56  122 1    
   111   56  123 1    
   112   56  124 1    
   113   57   58 2    
   114   57   59 am   BACKBONE|DICT|INTERRES
   115   59   60 1    
   116   59  125 1    
   117   60   61 1    
   118   60   62 1    
   119   60  126 1    
   120   61  127 1    
   121   61  128 1    
   122   61  129 1    
   123   62   63 2    
   124   62   64 am   BACKBONE|DICT|INTERRES
   125   64   65 1    
   126   64  130 1    
   127   65   66 1    
   128   65   69 1    
   129   65  131 1    
   130   66   67 am   BACKBONE|DICT|INTERRES
   131   66   68 2    
   132   67  132 1    
   133   67  133 1    
   134   69   70 1    
   135   69  134 1    
   136   69  135 1    
   137   70   71 1    
   138   71  136 1    
   139   71  137 1    
@<TRIPOS>SUBSTRUCTURE
     1 UNK         1 GROUP             0       ****    0 ROOT    
