@<TRIPOS>MOLECULE
3R136
137   139    1
SMALL
USER_CHARGES


@<TRIPOS>ATOM
      1 CA         34.8711   21.8469    2.0535 C.3       0 UNK        -0.1979 
      2 C          33.7558   22.8814    2.0790 C.2       0 UNK         0.4864 
      3 O          33.9709   23.9961    2.5544 O.2       0 UNK        -0.5359 
      4 N          32.5688   22.5138    1.5767 N.am      1 UNK        -0.4318 
      5 CA         31.3760   23.3688    1.5082 C.3       1 UNK         0.0824 
      6 C6         30.0974   22.5618    1.1659 C.3       12 UNK        -0.0944 
      7 S7         29.8335   21.1566    2.3020 S.3       12 UNK        -0.2672 
      8 C8         28.0697   21.3405    2.7361 C.3       12 UNK         0.0333 
      9 C9         27.7086   22.5671    3.5767 C.ar      12 UNK        -0.0807 
     10 C10        28.6545   23.2920    4.3133 C.ar      12 UNK        -0.0894 
     11 C11        28.2782   24.4074    5.0737 C.ar      12 UNK        -0.0804 
     12 C12        26.9282   24.7705    5.1243 C.ar      12 UNK        -0.0824 
     13 C13        25.9686   24.0435    4.4131 C.ar      12 UNK        -0.0762 
     14 C14        26.3675   22.9520    3.6385 C.ar      12 UNK        -0.0782 
     15 C15        24.4937   24.4082    4.4928 C.3       12 UNK         0.0230 
     16 S16        23.9220   25.2248    2.9707 S.3       12 UNK        -0.2608 
     17 C17        24.5422   26.9230    3.2133 C.3       12 UNK        -0.0989 
     18 CA         25.9277   27.1868    2.5570 C.3       5 UNK         0.0716 
     19 N          25.9924   26.8118    1.1380 N.am      5 UNK        -0.4135 
     20 C          25.2734   27.3218    0.1310 C.2       4 UNK         0.5031 
     21 O          24.5203   28.2912    0.2415 O.2       4 UNK        -0.5229 
     22 CA         25.4294   26.6147   -1.2312 C.3       4 UNK         0.0329 
     23 CB         24.3006   26.9819   -2.2129 C.3       4 UNK        -0.2001 
     24 N          26.7182   26.8895   -1.8720 N.am      4 UNK        -0.4303 
     25 C          27.9077   26.4190   -1.4762 C.2       3 UNK         0.5044 
     26 O          28.0634   25.6980   -0.4861 O.2       3 UNK        -0.5152 
     27 CA         29.1147   26.8268   -2.3341 C.3       3 UNK         0.0319 
     28 CB         29.2976   28.3558   -2.3748 C.3       3 UNK        -0.2001 
     29 N          30.3206   26.1943   -1.8050 N.am      3 UNK        -0.4354 
     30 C          31.4024   25.8423   -2.5051 C.2       2 UNK         0.4964 
     31 O          31.5288   26.0739   -3.7083 O.2       2 UNK        -0.5047 
     32 CA         32.5368   25.0845   -1.7793 C.3       2 UNK         0.0288 
     33 CB         33.6705   26.0348   -1.3499 C.3       2 UNK        -0.2113 
     34 N          32.1460   24.2100   -0.6613 N.am      2 UNK        -0.4145 
     35 C          31.5616   24.5256    0.5066 C.2       1 UNK         0.5006 
     36 O          31.1766   25.6555    0.8040 O.2       1 UNK        -0.5103 
     37 C          26.4307   28.6202    2.8399 C.2       5 UNK         0.5055 
     38 O          25.9938   29.2415    3.8120 O.2       5 UNK        -0.5220 
     39 N          27.3490   29.1282    2.0073 N.am      6 UNK        -0.4450 
     40 CA         27.9593   30.4480    2.1611 C.3       6 UNK         0.0367 
     41 CB         28.4433   30.9433    0.7874 C.3       6 UNK        -0.1929 
     42 C          29.0852   30.3860    3.2070 C.2       6 UNK         0.5070 
     43 O          30.2564   30.2523    2.8468 O.2       6 UNK        -0.5237 
     44 N          28.7030   30.4314    4.4890 N.am      7 UNK        -0.4739 
     45 CA         29.6003   30.4095    5.6476 C.3       7 UNK         0.0276 
     46 CB         28.7639   30.4309    6.9360 C.3       7 UNK        -0.1927 
     47 C          30.6021   31.5750    5.6308 C.2       7 UNK         0.5013 
     48 O          30.2105   32.7086    5.3434 O.2       7 UNK        -0.5193 
     49 N          31.8757   31.2638    5.9036 N.am      8 UNK        -0.4253 
     50 CA         33.0669   32.1245    5.8783 C.3       8 UNK         0.0242 
     51 CB         32.9345   33.3254    6.8356 C.3       8 UNK        -0.2000 
     52 C          33.4873   32.5733    4.4669 C.2       8 UNK         0.4948 
     53 O          34.6857   32.6122    4.1864 O.2       8 UNK        -0.5275 
     54 N          32.5136   32.8907    3.6049 N.am      9 UNK        -0.4246 
     55 CA         32.7105   33.2712    2.2067 C.3       9 UNK         0.0261 
     56 CB         31.4030   33.8543    1.6497 C.3       9 UNK        -0.1959 
     57 C          33.2094   32.1084    1.3320 C.2       9 UNK         0.5033 
     58 O          34.0844   32.3282    0.4926 O.2       9 UNK        -0.5390 
     59 N          32.6563   30.9067    1.5424 N.am      10 UNK        -0.4215 
     60 CA         33.0257   29.6817    0.8342 C.3       10 UNK         0.0240 
     61 CB         31.9386   29.3260   -0.1953 C.3       10 UNK        -0.1982 
     62 C          33.2571   28.5385    1.8306 C.2       10 UNK         0.4970 
     63 O          34.3457   27.9634    1.8304 O.2       10 UNK        -0.4916 
     64 N          32.2498   28.2366    2.6623 N.am      11 UNK        -0.4279 
     65 CA         32.3183   27.1931    3.6919 C.3       11 UNK         0.1003 
     66 C          33.1606   27.6833    4.8995 C.2       11 UNK         0.5709 
     67 N          34.2836   27.0393    5.1855 N.am      11 UNK        -0.7358 
     68 O          32.7828   28.6254    5.5931 O.2       11 UNK        -0.4999 
     69 C69        30.9022   26.7021    4.1036 C.3       12 UNK        -0.0954 
     70 S70        30.9770   25.2441    5.1994 S.3       12 UNK        -0.2268 
     71 C71        29.2945   25.1894    5.9063 C.3       12 UNK         0.0203 
     72 H72        35.7128   22.2180    1.4694 H         1 UNK         0.0888 
     73 H73        35.2202   21.6476    3.0663 H         1 UNK         0.0888 
     74 H74        34.5439   20.9038    1.6161 H         1 UNK         0.0888 
     75 H75        32.4448   21.5691    1.2407 H         1 UNK         0.3017 
     76 H76        31.2388   23.8192    2.4934 H         1 UNK         0.0873 
     77 H77        30.1460   22.1639    0.1505 H         1 UNK         0.0745 
     78 H78        29.2246   23.2181    1.1921 H         1 UNK         0.0745 
     79 H79        27.4911   21.3463    1.8108 H         1 UNK         0.0705 
     80 H80        27.7621   20.4498    3.2854 H         1 UNK         0.0705 
     81 H81        29.6887   22.9824    4.3069 H         1 UNK         0.1334 
     82 H82        26.6208   25.6129    5.7293 H         1 UNK         0.1417 
     83 H83        25.6224   22.3925    3.0885 H         1 UNK         0.1562 
     84 H84        24.2889   25.0392    5.3590 H         1 UNK         0.0748 
     85 H85        23.9090   23.4988    4.6402 H         1 UNK         0.0748 
     86 H86        24.5772   27.1297    4.2845 H         1 UNK         0.0940 
     87 H87        23.7972   27.6096    2.8070 H         1 UNK         0.0940 
     88 H88        26.6528   26.5394    3.0485 H         1 UNK         0.0703 
     89 H89        26.6478   26.0722    0.9038 H         1 UNK         0.3081 
     90 H90        25.3635   25.5401   -1.0457 H         1 UNK         0.0719 
     91 H91        24.3700   26.4020   -3.1334 H         1 UNK         0.0809 
     92 H92        24.3224   28.0395   -2.4791 H         1 UNK         0.0809 
     93 H93        23.3222   26.7762   -1.7763 H         1 UNK         0.0809 
     94 H94        26.6884   27.4927   -2.6813 H         1 UNK         0.2990 
     95 H95        28.9361   26.4571   -3.3460 H         1 UNK         0.0690 
     96 H96        29.3425   28.7772   -1.3723 H         1 UNK         0.0788 
     97 H97        28.4722   28.8425   -2.8950 H         1 UNK         0.0788 
     98 H98        30.2122   28.6361   -2.8976 H         1 UNK         0.0788 
     99 H99        30.2936   25.9702   -0.8115 H         1 UNK         0.2993 
    100 H100       32.9551   24.4141   -2.5321 H         1 UNK         0.0949 
    101 H101       34.5724   25.4776   -1.0964 H         1 UNK         0.0767 
    102 H102       33.9329   26.7302   -2.1484 H         1 UNK         0.0767 
    103 H103       33.3966   26.6225   -0.4758 H         1 UNK         0.0767 
    104 H104       32.3866   23.2373   -0.7914 H         1 UNK         0.3013 
    105 H105       27.6869   28.5511    1.2517 H         1 UNK         0.3121 
    106 H106       27.2052   31.1553    2.5138 H         1 UNK         0.0774 
    107 H107       28.8152   31.9649    0.8528 H         1 UNK         0.0815 
    108 H108       29.2481   30.3295    0.3900 H         1 UNK         0.0815 
    109 H109       27.6328   30.9449    0.0584 H         1 UNK         0.0815 
    110 H110       27.7106   30.4831    4.6816 H         1 UNK         0.2987 
    111 H111       30.1576   29.4735    5.6189 H         1 UNK         0.0949 
    112 H112       28.1637   31.3388    7.0110 H         1 UNK         0.0806 
    113 H113       28.0891   29.5760    6.9863 H         1 UNK         0.0806 
    114 H114       29.4045   30.3895    7.8181 H         1 UNK         0.0806 
    115 H115       32.0967   30.2753    6.0197 H         1 UNK         0.3010 
    116 H116       33.8775   31.4976    6.2540 H         1 UNK         0.0829 
    117 H117       32.6848   33.0015    7.8460 H         1 UNK         0.0813 
    118 H118       33.8735   33.8772    6.8947 H         1 UNK         0.0813 
    119 H119       32.1688   34.0295    6.5092 H         1 UNK         0.0813 
    120 H120       31.5596   32.8623    3.9537 H         1 UNK         0.3038 
    121 H121       33.4707   34.0548    2.1768 H         1 UNK         0.0769 
    122 H122       31.5058   34.1151    0.5954 H         1 UNK         0.0811 
    123 H123       31.1165   34.7615    2.1820 H         1 UNK         0.0811 
    124 H124       30.5813   33.1444    1.7354 H         1 UNK         0.0811 
    125 H125       31.9051   30.8196    2.2244 H         1 UNK         0.3204 
    126 H126       33.9626   29.8345    0.2941 H         1 UNK         0.0748 
    127 H127       32.2930   28.5715   -0.8954 H         1 UNK         0.0771 
    128 H128       31.0451   28.9248    0.2823 H         1 UNK         0.0771 
    129 H129       31.6465   30.1944   -0.7859 H         1 UNK         0.0771 
    130 H130       31.4088   28.8058    2.6509 H         1 UNK         0.2980 
    131 H131       32.8265   26.3375    3.2428 H         1 UNK         0.0545 
    132 H132       34.5890   26.2645    4.6161 H         1 UNK         0.3459 
    133 H133       34.8354   27.3360    5.9743 H         1 UNK         0.3459 
    134 H134       30.3268   26.4241    3.2198 H         1 UNK         0.0616 
    135 H135       30.3404   27.4966    4.5921 H         1 UNK         0.0616 
    136 H136       28.9470   26.2092    6.0796 H         1 UNK         0.0634 
    137 H137       29.3568   24.7168    6.8871 H         1 UNK         0.0634 
@<TRIPOS>BOND
     1    1    2 1    
     2    1   72 1    
     3    1   73 1    
     4    1   74 1    
     5    2    3 2    
     6    2    4 am   BACKBONE|DICT|INTERRES
     7    4    5 1    
     8    4   75 1    
     9    5    6 1    
    10    5   35 1    
    11    5   76 1    
    12    6    7 1    
    13    6   77 1    
    14    6   78 1    
    15    7    8 1    
    16    8    9 1    
    17    8   79 1    
    18    8   80 1    
    19    9   10 ar   
    20    9   14 ar   
    21   10   11 ar   
    22   10   81 1    
    23   11   12 ar   
    24   11   71 1    
    25   12   13 ar   
    26   12   82 1    
    27   13   14 ar   
    28   13   15 1    
    29   14   83 1    
    30   15   16 1    
    31   15   84 1    
    32   15   85 1    
    33   16   17 1    
    34   17   18 1    
    35   17   86 1    
    36   17   87 1    
    37   18   19 1    
    38   18   37 1    
    39   18   88 1    
    40   19   20 am   BACKBONE|DICT|INTERRES
    41   19   89 1    
    42   20   21 2    
    43   20   22 1    
    44   22   23 1    
    45   22   24 1    
    46   22   90 1    
    47   23   91 1    
    48   23   92 1    
    49   23   93 1    
    50   24   25 am   BACKBONE|DICT|INTERRES
    51   24   94 1    
    52   25   26 2    
    53   25   27 1    
    54   27   28 1    
    55   27   29 1    
    56   27   95 1    
    57   28   96 1    
    58   28   97 1    
    59   28   98 1    
    60   29   30 am   BACKBONE|DICT|INTERRES
    61   29   99 1    
    62   30   31 2    
    63   30   32 1    
    64   32   33 1    
    65   32   34 1    
    66   32  100 1    
    67   33  101 1    
    68   33  102 1    
    69   33  103 1    
    70   34   35 am   BACKBONE|DICT|INTERRES
    71   34  104 1    
    72   35   36 2    
    73   37   38 2    
    74   37   39 am   BACKBONE|DICT|INTERRES
    75   39   40 1    
    76   39  105 1    
    77   40   41 1    
    78   40   42 1    
    79   40  106 1    
    80   41  107 1    
    81   41  108 1    
    82   41  109 1    
    83   42   43 2    
    84   42   44 am   BACKBONE|DICT|INTERRES
    85   44   45 1    
    86   44  110 1    
    87   45   46 1    
    88   45   47 1    
    89   45  111 1    
    90   46  112 1    
    91   46  113 1    
    92   46  114 1    
    93   47   48 2    
    94   47   49 am   BACKBONE|DICT|INTERRES
    95   49   50 1    
    96   49  115 1    
    97   50   51 1    
    98   50   52 1    
    99   50  116 1    
   100   51  117 1    
   101   51  118 1    
   102   51  119 1    
   103   52   53 2    
   104   52   54 am   BACKBONE|DICT|INTERRES
   105   54   55 1    
   106   54  120 1    
   107   55   56 1    
   108   55   57 1    
   109   55  121 1    
   110   56  122 1    
   111   56  123 1    
   112   56  124 1    
   113   57   58 2    
   114   57   59 am   BACKBONE|DICT|INTERRES
   115   59   60 1    
   116   59  125 1    
   117   60   61 1    
   118   60   62 1    
   119   60  126 1    
   120   61  127 1    
   121   61  128 1    
   122   61  129 1    
   123   62   63 2    
   124   62   64 am   BACKBONE|DICT|INTERRES
   125   64   65 1    
   126   64  130 1    
   127   65   66 1    
   128   65   69 1    
   129   65  131 1    
   130   66   67 am   BACKBONE|DICT|INTERRES
   131   66   68 2    
   132   67  132 1    
   133   67  133 1    
   134   69   70 1    
   135   69  134 1    
   136   69  135 1    
   137   70   71 1    
   138   71  136 1    
   139   71  137 1    
@<TRIPOS>SUBSTRUCTURE
     1 UNK         1 GROUP             0       ****    0 ROOT    
