@<TRIPOS>MOLECULE
3R136
137   139    1
SMALL
USER_CHARGES


@<TRIPOS>ATOM
      1 CA         26.0175   27.2612    6.3134 C.3       0 UNK        -0.1979 
      2 C          26.5109   26.0619    5.5196 C.2       0 UNK         0.4864 
      3 O          26.0406   24.9493    5.7601 O.2       0 UNK        -0.5359 
      4 N          27.4367   26.2717    4.5697 N.am      1 UNK        -0.4318 
      5 CA         27.8939   25.2506    3.6161 C.3       1 UNK         0.0824 
      6 C6         29.1113   25.7252    2.7841 C.3       12 UNK        -0.0944 
      7 S7         30.6295   25.8576    3.7940 S.3       12 UNK        -0.2672 
      8 C8         31.7490   24.6856    2.9566 C.3       12 UNK         0.0333 
      9 C9         32.5769   25.3610    1.8686 C.ar      12 UNK        -0.0807 
     10 C10        33.9558   25.5302    2.0375 C.ar      12 UNK        -0.0894 
     11 C11        34.7327   26.1395    1.0403 C.ar      12 UNK        -0.0804 
     12 C12        34.0995   26.6127   -0.1129 C.ar      12 UNK        -0.0824 
     13 C13        32.7239   26.4544   -0.2947 C.ar      12 UNK        -0.0762 
     14 C14        31.9731   25.8032    0.6876 C.ar      12 UNK        -0.0782 
     15 C15        32.0591   26.9816   -1.5580 C.3       12 UNK         0.0230 
     16 S16        31.6614   28.7579   -1.4320 S.3       12 UNK        -0.2608 
     17 C17        30.1866   28.7418   -0.3547 C.3       12 UNK        -0.0989 
     18 CA         28.8520   28.8071   -1.1386 C.3       5 UNK         0.0716 
     19 N          28.7298   27.7358   -2.1189 N.am      5 UNK        -0.4135 
     20 C          28.5593   27.8796   -3.4380 C.2       4 UNK         0.5031 
     21 O          28.6070   28.9579   -4.0313 O.2       4 UNK        -0.5229 
     22 CA         28.2632   26.5915   -4.2330 C.3       4 UNK         0.0329 
     23 CB         29.5389   26.0808   -4.9228 C.3       4 UNK        -0.2001 
     24 N          27.7006   25.5194   -3.4017 N.am      4 UNK        -0.4303 
     25 C          26.5027   25.5704   -2.8007 C.2       3 UNK         0.5044 
     26 O          25.6885   26.4773   -2.9830 O.2       3 UNK        -0.5152 
     27 CA         26.1685   24.4604   -1.7958 C.3       3 UNK         0.0319 
     28 CB         27.3057   23.4451   -1.5490 C.3       3 UNK        -0.2001 
     29 N          25.8092   25.0934   -0.5287 N.am      3 UNK        -0.4354 
     30 C          24.7824   24.7314    0.2464 C.2       2 UNK         0.4964 
     31 O          24.0032   23.8163   -0.0300 O.2       2 UNK        -0.5047 
     32 CA         24.6143   25.5220    1.5598 C.3       2 UNK         0.0288 
     33 CB         23.5476   24.9125    2.4942 C.3       2 UNK        -0.2113 
     34 N          25.8695   25.7160    2.2990 N.am      2 UNK        -0.4145 
     35 C          26.7459   24.7766    2.6969 C.2       1 UNK         0.5006 
     36 O          26.6650   23.5808    2.4106 O.2       1 UNK        -0.5103 
     37 C          27.6673   28.6390   -0.1741 C.2       5 UNK         0.5055 
     38 O          27.3575   27.5039    0.2054 O.2       5 UNK        -0.5220 
     39 N          27.0390   29.7553    0.2116 N.am      6 UNK        -0.4450 
     40 CA         25.9327   29.7824    1.1737 C.3       6 UNK         0.0367 
     41 CB         24.9238   30.8621    0.7494 C.3       6 UNK        -0.1929 
     42 C          26.4077   30.0378    2.6149 C.2       6 UNK         0.5070 
     43 O          25.6885   29.6863    3.5500 O.2       6 UNK        -0.5237 
     44 N          27.5876   30.6561    2.7726 N.am      7 UNK        -0.4739 
     45 CA         28.1946   31.0101    4.0595 C.3       7 UNK         0.0276 
     46 CB         29.4262   31.8940    3.8013 C.3       7 UNK        -0.1927 
     47 C          28.5908   29.7768    4.8864 C.2       7 UNK         0.5013 
     48 O          28.8688   28.7206    4.3166 O.2       7 UNK        -0.5193 
     49 N          28.6189   29.9316    6.2152 N.am      8 UNK        -0.4253 
     50 CA         29.0687   28.8995    7.1487 C.3       8 UNK         0.0242 
     51 CB         28.4731   29.1714    8.5408 C.3       8 UNK        -0.2000 
     52 C          30.6006   28.8767    7.1983 C.2       8 UNK         0.4948 
     53 O          31.1989   29.9036    7.5265 O.2       8 UNK        -0.5275 
     54 N          31.1897   27.7148    6.8745 N.am      9 UNK        -0.4246 
     55 CA         32.6321   27.4460    6.8010 C.3       9 UNK         0.0261 
     56 CB         33.2536   27.4219    8.2137 C.3       9 UNK        -0.1959 
     57 C          33.3490   28.4191    5.8464 C.2       9 UNK         0.5033 
     58 O          34.2899   29.1069    6.2487 O.2       9 UNK        -0.5390 
     59 N          32.8662   28.4712    4.5966 N.am      10 UNK        -0.4215 
     60 CA         33.2627   29.4351    3.5622 C.3       10 UNK         0.0240 
     61 CB         32.3645   29.2400    2.3342 C.3       10 UNK        -0.1982 
     62 C          34.7539   29.4257    3.1648 C.2       10 UNK         0.4970 
     63 O          35.2105   30.3946    2.5563 O.2       10 UNK        -0.4916 
     64 N          35.4929   28.3722    3.5378 N.am      11 UNK        -0.4279 
     65 CA         36.9621   28.3280    3.5009 C.3       11 UNK         0.1003 
     66 C          37.6524   29.3250    4.4821 C.2       11 UNK         0.5709 
     67 N          36.9835   29.8274    5.5141 N.am      11 UNK        -0.7358 
     68 O          38.8228   29.6508    4.2971 O.2       11 UNK        -0.4999 
     69 C69        37.5001   26.8921    3.7500 C.3       12 UNK        -0.0954 
     70 S70        37.0588   25.5433    2.5903 S.3       12 UNK        -0.2268 
     71 C71        36.2542   26.2882    1.1249 C.3       12 UNK         0.0203 
     72 H72        26.3368   28.2025    5.8701 H         1 UNK         0.0888 
     73 H73        24.9282   27.2658    6.3415 H         1 UNK         0.0888 
     74 H74        26.3818   27.2119    7.3385 H         1 UNK         0.0888 
     75 H75        27.8539   27.1942    4.4486 H         1 UNK         0.3017 
     76 H76        28.2026   24.3789    4.1976 H         1 UNK         0.0873 
     77 H77        28.9131   26.6965    2.3275 H         1 UNK         0.0745 
     78 H78        29.2899   25.0345    1.9592 H         1 UNK         0.0745 
     79 H79        32.4048   24.2497    3.7117 H         1 UNK         0.0705 
     80 H80        31.1867   23.8512    2.5357 H         1 UNK         0.0705 
     81 H81        34.4159   25.1660    2.9442 H         1 UNK         0.1334 
     82 H82        34.6832   27.1001   -0.8823 H         1 UNK         0.1417 
     83 H83        30.9135   25.6608    0.5398 H         1 UNK         0.1562 
     84 H84        31.1575   26.4116   -1.7832 H         1 UNK         0.0748 
     85 H85        32.7262   26.8343   -2.4086 H         1 UNK         0.0748 
     86 H86        30.2610   29.6044    0.3094 H         1 UNK         0.0940 
     87 H87        30.2193   27.8690    0.2970 H         1 UNK         0.0940 
     88 H88        28.7763   29.7790   -1.6309 H         1 UNK         0.0703 
     89 H89        28.5973   26.8189   -1.7201 H         1 UNK         0.3081 
     90 H90        27.5311   26.8424   -5.0035 H         1 UNK         0.0719 
     91 H91        30.3060   25.7985   -4.2007 H         1 UNK         0.0809 
     92 H92        29.3315   25.2139   -5.5505 H         1 UNK         0.0809 
     93 H93        29.9672   26.8497   -5.5676 H         1 UNK         0.0809 
     94 H94        28.2963   24.7244   -3.2190 H         1 UNK         0.2990 
     95 H95        25.3110   23.9252   -2.2087 H         1 UNK         0.0690 
     96 H96        27.5816   22.9214   -2.4652 H         1 UNK         0.0788 
     97 H97        26.9933   22.6833   -0.8340 H         1 UNK         0.0788 
     98 H98        28.2000   23.9204   -1.1435 H         1 UNK         0.0788 
     99 H99        26.3655   25.8996   -0.2514 H         1 UNK         0.2993 
    100 H100       24.2695   26.5154    1.2692 H         1 UNK         0.0949 
    101 H101       23.4177   25.5154    3.3931 H         1 UNK         0.0767 
    102 H102       22.5770   24.8556    1.9998 H         1 UNK         0.0767 
    103 H103       23.8167   23.9025    2.8060 H         1 UNK         0.0767 
    104 H104       26.0748   26.6694    2.5618 H         1 UNK         0.3013 
    105 H105       27.3327   30.6438   -0.1698 H         1 UNK         0.3121 
    106 H106       25.4132   28.8219    1.1663 H         1 UNK         0.0774 
    107 H107       25.3708   31.8570    0.7448 H         1 UNK         0.0815 
    108 H108       24.0733   30.8907    1.4322 H         1 UNK         0.0815 
    109 H109       24.5294   30.6657   -0.2477 H         1 UNK         0.0815 
    110 H110       28.1257   30.8749    1.9492 H         1 UNK         0.2987 
    111 H111       27.4598   31.5839    4.6286 H         1 UNK         0.0949 
    112 H112       30.1809   31.3736    3.2110 H         1 UNK         0.0806 
    113 H113       29.1560   32.8073    3.2709 H         1 UNK         0.0806 
    114 H114       29.8989   32.1945    4.7376 H         1 UNK         0.0806 
    115 H115       28.4271   30.8412    6.6098 H         1 UNK         0.3010 
    116 H116       28.7127   27.9256    6.8100 H         1 UNK         0.0829 
    117 H117       27.3837   29.1880    8.5131 H         1 UNK         0.0813 
    118 H118       28.7683   28.3951    9.2480 H         1 UNK         0.0813 
    119 H119       28.8103   30.1261    8.9469 H         1 UNK         0.0813 
    120 H120       30.5962   26.9486    6.5861 H         1 UNK         0.3038 
    121 H121       32.7457   26.4489    6.3723 H         1 UNK         0.0769 
    122 H122       34.3077   27.1449    8.1711 H         1 UNK         0.0811 
    123 H123       33.1940   28.3963    8.7000 H         1 UNK         0.0811 
    124 H124       32.7534   26.6963    8.8550 H         1 UNK         0.0811 
    125 H125       32.0927   27.8619    4.3610 H         1 UNK         0.3204 
    126 H126       33.0585   30.4275    3.9693 H         1 UNK         0.0748 
    127 H127       32.5554   30.0049    1.5804 H         1 UNK         0.0771 
    128 H128       32.5411   28.2740    1.8666 H         1 UNK         0.0771 
    129 H129       31.3080   29.2936    2.5978 H         1 UNK         0.0771 
    130 H130       35.0376   27.6192    4.0285 H         1 UNK         0.2980 
    131 H131       37.2835   28.6526    2.5117 H         1 UNK         0.0545 
    132 H132       37.4485   30.4714    6.1331 H         1 UNK         0.3459 
    133 H133       36.0195   29.5589    5.6994 H         1 UNK         0.3459 
    134 H134       37.2036   26.5617    4.7473 H         1 UNK         0.0616 
    135 H135       38.5917   26.9109    3.7665 H         1 UNK         0.0616 
    136 H136       36.6751   25.7797    0.2565 H         1 UNK         0.0634 
    137 H137       36.5296   27.3327    1.0010 H         1 UNK         0.0634 
@<TRIPOS>BOND
     1    1    2 1    
     2    1   72 1    
     3    1   73 1    
     4    1   74 1    
     5    2    3 2    
     6    2    4 am   BACKBONE|DICT|INTERRES
     7    4    5 1    
     8    4   75 1    
     9    5    6 1    
    10    5   35 1    
    11    5   76 1    
    12    6    7 1    
    13    6   77 1    
    14    6   78 1    
    15    7    8 1    
    16    8    9 1    
    17    8   79 1    
    18    8   80 1    
    19    9   10 ar   
    20    9   14 ar   
    21   10   11 ar   
    22   10   81 1    
    23   11   12 ar   
    24   11   71 1    
    25   12   13 ar   
    26   12   82 1    
    27   13   14 ar   
    28   13   15 1    
    29   14   83 1    
    30   15   16 1    
    31   15   84 1    
    32   15   85 1    
    33   16   17 1    
    34   17   18 1    
    35   17   86 1    
    36   17   87 1    
    37   18   19 1    
    38   18   37 1    
    39   18   88 1    
    40   19   20 am   BACKBONE|DICT|INTERRES
    41   19   89 1    
    42   20   21 2    
    43   20   22 1    
    44   22   23 1    
    45   22   24 1    
    46   22   90 1    
    47   23   91 1    
    48   23   92 1    
    49   23   93 1    
    50   24   25 am   BACKBONE|DICT|INTERRES
    51   24   94 1    
    52   25   26 2    
    53   25   27 1    
    54   27   28 1    
    55   27   29 1    
    56   27   95 1    
    57   28   96 1    
    58   28   97 1    
    59   28   98 1    
    60   29   30 am   BACKBONE|DICT|INTERRES
    61   29   99 1    
    62   30   31 2    
    63   30   32 1    
    64   32   33 1    
    65   32   34 1    
    66   32  100 1    
    67   33  101 1    
    68   33  102 1    
    69   33  103 1    
    70   34   35 am   BACKBONE|DICT|INTERRES
    71   34  104 1    
    72   35   36 2    
    73   37   38 2    
    74   37   39 am   BACKBONE|DICT|INTERRES
    75   39   40 1    
    76   39  105 1    
    77   40   41 1    
    78   40   42 1    
    79   40  106 1    
    80   41  107 1    
    81   41  108 1    
    82   41  109 1    
    83   42   43 2    
    84   42   44 am   BACKBONE|DICT|INTERRES
    85   44   45 1    
    86   44  110 1    
    87   45   46 1    
    88   45   47 1    
    89   45  111 1    
    90   46  112 1    
    91   46  113 1    
    92   46  114 1    
    93   47   48 2    
    94   47   49 am   BACKBONE|DICT|INTERRES
    95   49   50 1    
    96   49  115 1    
    97   50   51 1    
    98   50   52 1    
    99   50  116 1    
   100   51  117 1    
   101   51  118 1    
   102   51  119 1    
   103   52   53 2    
   104   52   54 am   BACKBONE|DICT|INTERRES
   105   54   55 1    
   106   54  120 1    
   107   55   56 1    
   108   55   57 1    
   109   55  121 1    
   110   56  122 1    
   111   56  123 1    
   112   56  124 1    
   113   57   58 2    
   114   57   59 am   BACKBONE|DICT|INTERRES
   115   59   60 1    
   116   59  125 1    
   117   60   61 1    
   118   60   62 1    
   119   60  126 1    
   120   61  127 1    
   121   61  128 1    
   122   61  129 1    
   123   62   63 2    
   124   62   64 am   BACKBONE|DICT|INTERRES
   125   64   65 1    
   126   64  130 1    
   127   65   66 1    
   128   65   69 1    
   129   65  131 1    
   130   66   67 am   BACKBONE|DICT|INTERRES
   131   66   68 2    
   132   67  132 1    
   133   67  133 1    
   134   69   70 1    
   135   69  134 1    
   136   69  135 1    
   137   70   71 1    
   138   71  136 1    
   139   71  137 1    
@<TRIPOS>SUBSTRUCTURE
     1 UNK         1 GROUP             0       ****    0 ROOT    
