@<TRIPOS>MOLECULE
3R136
137   139    1
SMALL
USER_CHARGES


@<TRIPOS>ATOM
      1 CA         24.9294   24.3108    3.0429 C.3       0 UNK        -0.1979 
      2 C          26.1532   24.0853    2.1691 C.2       0 UNK         0.4864 
      3 O          26.8259   25.0531    1.8024 O.2       0 UNK        -0.5359 
      4 N          26.4475   22.8141    1.8544 N.am      1 UNK        -0.4318 
      5 CA         27.5360   22.3650    0.9748 C.3       1 UNK         0.0824 
      6 C6         28.9296   22.8179    1.4949 C.3       12 UNK        -0.0944 
      7 S7         30.2869   21.6651    1.1018 S.3       12 UNK        -0.2672 
      8 C8         31.7462   22.7741    1.0556 C.3       12 UNK         0.0333 
      9 C9         32.0081   23.6168    2.3104 C.ar      12 UNK        -0.0807 
     10 C10        32.8733   24.7113    2.2116 C.ar      12 UNK        -0.0894 
     11 C11        33.1292   25.5361    3.3143 C.ar      12 UNK        -0.0804 
     12 C12        32.4745   25.2810    4.5228 C.ar      12 UNK        -0.0824 
     13 C13        31.6006   24.1974    4.6381 C.ar      12 UNK        -0.0762 
     14 C14        31.4141   23.3436    3.5480 C.ar      12 UNK        -0.0782 
     15 C15        30.8230   23.9593    5.9255 C.3       12 UNK         0.0230 
     16 S16        29.5391   25.2267    6.2248 S.3       12 UNK        -0.2608 
     17 C17        28.6521   25.3563    4.6278 C.3       12 UNK        -0.0989 
     18 CA         28.8062   26.7732    4.0116 C.3       5 UNK         0.0716 
     19 N          29.0966   26.7729    2.5719 N.am      5 UNK        -0.4135 
     20 C          29.7195   27.7930    1.9606 C.2       4 UNK         0.5031 
     21 O          30.1184   28.7961    2.5524 O.2       4 UNK        -0.5229 
     22 CA         29.9332   27.7210    0.4408 C.3       4 UNK         0.0329 
     23 CB         31.2387   26.9858    0.1093 C.3       4 UNK        -0.2001 
     24 N          28.8378   27.1234   -0.3191 N.am      4 UNK        -0.4303 
     25 C          27.5735   27.5598   -0.3528 C.2       3 UNK         0.5044 
     26 O          27.1569   28.4694    0.3622 O.2       3 UNK        -0.5152 
     27 CA         26.5993   26.8882   -1.3433 C.3       3 UNK         0.0319 
     28 CB         26.3266   27.8078   -2.5487 C.3       3 UNK        -0.2001 
     29 N          26.9725   25.5344   -1.7834 N.am      3 UNK        -0.4354 
     30 C          28.0304   25.1210   -2.4982 C.2       2 UNK         0.4964 
     31 O          28.8830   25.8808   -2.9579 O.2       2 UNK        -0.5047 
     32 CA         28.2122   23.5929   -2.6224 C.3       2 UNK         0.0288 
     33 CB         29.4686   23.2048   -3.4247 C.3       2 UNK        -0.2113 
     34 N          28.2916   22.9775   -1.2936 N.am      2 UNK        -0.4145 
     35 C          27.2437   22.7587   -0.4892 C.2       1 UNK         0.5006 
     36 O          26.0756   22.9021   -0.8641 O.2       1 UNK        -0.5103 
     37 C          27.6019   27.6788    4.3259 C.2       5 UNK         0.5055 
     38 O          27.6538   28.4293    5.3014 O.2       5 UNK        -0.5220 
     39 N          26.5712   27.6438    3.4645 N.am      6 UNK        -0.4450 
     40 CA         25.4004   28.5302    3.5249 C.3       6 UNK         0.0367 
     41 CB         24.3649   28.1061    2.4714 C.3       6 UNK        -0.1929 
     42 C          25.7620   30.0191    3.3654 C.2       6 UNK         0.5070 
     43 O          25.1312   30.8693    3.9924 O.2       6 UNK        -0.5237 
     44 N          26.8154   30.2988    2.5878 N.am      7 UNK        -0.4739 
     45 CA         27.4596   31.6055    2.4299 C.3       7 UNK         0.0276 
     46 CB         28.2096   31.6155    1.0860 C.3       7 UNK        -0.1927 
     47 C          28.3846   32.0005    3.6061 C.2       7 UNK         0.5013 
     48 O          29.1971   32.9112    3.4429 O.2       7 UNK        -0.5193 
     49 N          28.2437   31.3323    4.7618 N.am      8 UNK        -0.4253 
     50 CA         28.9711   31.5296    6.0205 C.3       8 UNK         0.0242 
     51 CB         28.7563   32.9517    6.5840 C.3       8 UNK        -0.2000 
     52 C          30.4519   31.1268    5.9128 C.2       8 UNK         0.4948 
     53 O          31.3311   31.8908    6.3158 O.2       8 UNK        -0.5275 
     54 N          30.6825   29.9154    5.3845 N.am      9 UNK        -0.4246 
     55 CA         31.9813   29.2634    5.1746 C.3       9 UNK         0.0261 
     56 CB         32.6519   28.9182    6.5209 C.3       9 UNK        -0.1959 
     57 C          32.8911   30.0689    4.2299 C.2       9 UNK         0.5033 
     58 O          34.0264   30.3985    4.5808 O.2       9 UNK        -0.5390 
     59 N          32.3784   30.3484    3.0255 N.am      10 UNK        -0.4215 
     60 CA         33.0326   31.1059    1.9527 C.3       10 UNK         0.0240 
     61 CB         31.9510   31.6343    0.9931 C.3       10 UNK        -0.1982 
     62 C          34.1326   30.3044    1.2218 C.2       10 UNK         0.4970 
     63 O          34.1542   30.2603   -0.0094 O.2       10 UNK        -0.4916 
     64 N          35.0209   29.6787    1.9969 N.am      11 UNK        -0.4279 
     65 CA         36.2061   28.9503    1.5351 C.3       11 UNK         0.1003 
     66 C          37.3848   29.9216    1.2553 C.2       11 UNK         0.5709 
     67 N          38.2832   29.5565    0.3509 N.am      11 UNK        -0.7358 
     68 O          37.5137   30.9812    1.8673 O.2       11 UNK        -0.4999 
     69 C69        36.6019   27.8542    2.5611 C.3       12 UNK        -0.0954 
     70 S70        35.6350   26.3214    2.3609 S.3       12 UNK        -0.2268 
     71 C71        34.0689   26.7312    3.1977 C.3       12 UNK         0.0203 
     72 H72        25.1473   25.0399    3.8226 H         1 UNK         0.0888 
     73 H73        24.1060   24.6881    2.4379 H         1 UNK         0.0888 
     74 H74        24.6024   23.3906    3.5264 H         1 UNK         0.0888 
     75 H75        25.8288   22.0804    2.1703 H         1 UNK         0.3017 
     76 H76        27.4966   21.2750    1.0033 H         1 UNK         0.0873 
     77 H77        29.1785   23.8319    1.1753 H         1 UNK         0.0745 
     78 H78        28.8814   22.8543    2.5809 H         1 UNK         0.0745 
     79 H79        32.6298   22.1645    0.8625 H         1 UNK         0.0705 
     80 H80        31.6374   23.4354    0.1947 H         1 UNK         0.0705 
     81 H81        33.3515   24.9259    1.2656 H         1 UNK         0.1334 
     82 H82        32.6274   25.9322    5.3725 H         1 UNK         0.1417 
     83 H83        30.7696   22.4853    3.6652 H         1 UNK         0.1562 
     84 H84        31.5149   23.9506    6.7689 H         1 UNK         0.0748 
     85 H85        30.3467   22.9776    5.9138 H         1 UNK         0.0748 
     86 H86        27.6066   25.0843    4.7850 H         1 UNK         0.0940 
     87 H87        29.0352   24.6045    3.9445 H         1 UNK         0.0940 
     88 H88        29.6689   27.2395    4.4900 H         1 UNK         0.0703 
     89 H89        28.6902   26.0261    2.0203 H         1 UNK         0.3081 
     90 H90        30.0331   28.7493    0.0883 H         1 UNK         0.0719 
     91 H91        32.0781   27.3988    0.6704 H         1 UNK         0.0809 
     92 H92        31.4852   27.0745   -0.9489 H         1 UNK         0.0809 
     93 H93        31.1674   25.9252    0.3476 H         1 UNK         0.0809 
     94 H94        29.0916   26.4322   -1.0141 H         1 UNK         0.2990 
     95 H95        25.6605   26.7675   -0.8003 H         1 UNK         0.0690 
     96 H96        25.5784   27.3778   -3.2146 H         1 UNK         0.0788 
     97 H97        27.2290   27.9938   -3.1318 H         1 UNK         0.0788 
     98 H98        25.9491   28.7773   -2.2203 H         1 UNK         0.0788 
     99 H99        26.3797   24.7961   -1.4143 H         1 UNK         0.2993 
    100 H100       27.3405   23.2014   -3.1518 H         1 UNK         0.0949 
    101 H101       29.5517   22.1230   -3.5312 H         1 UNK         0.0767 
    102 H102       29.4353   23.6261   -4.4305 H         1 UNK         0.0767 
    103 H103       30.3815   23.5659   -2.9489 H         1 UNK         0.0767 
    104 H104       29.2170   22.8230   -0.9172 H         1 UNK         0.3013 
    105 H105       26.6219   27.0008    2.6814 H         1 UNK         0.3121 
    106 H106       24.9491   28.4106    4.5120 H         1 UNK         0.0774 
    107 H107       24.7718   28.1448    1.4610 H         1 UNK         0.0815 
    108 H108       23.4944   28.7631    2.4955 H         1 UNK         0.0815 
    109 H109       24.0058   27.0944    2.6514 H         1 UNK         0.0815 
    110 H110       27.2070   29.5388    2.0387 H         1 UNK         0.2987 
    111 H111       26.6782   32.3667    2.3828 H         1 UNK         0.0949 
    112 H112       29.0128   30.8795    1.0749 H         1 UNK         0.0806 
    113 H113       27.5395   31.3880    0.2568 H         1 UNK         0.0806 
    114 H114       28.6528   32.5912    0.8830 H         1 UNK         0.0806 
    115 H115       27.5806   30.5667    4.7735 H         1 UNK         0.3010 
    116 H116       28.5247   30.8334    6.7326 H         1 UNK         0.0829 
    117 H117       29.2266   33.7136    5.9619 H         1 UNK         0.0813 
    118 H118       27.6960   33.1908    6.6648 H         1 UNK         0.0813 
    119 H119       29.1857   33.0419    7.5825 H         1 UNK         0.0813 
    120 H120       29.8787   29.4040    5.0442 H         1 UNK         0.3038 
    121 H121       31.7774   28.3205    4.6669 H         1 UNK         0.0769 
    122 H122       33.5760   28.3605    6.3653 H         1 UNK         0.0811 
    123 H123       32.9069   29.8130    7.0894 H         1 UNK         0.0811 
    124 H124       32.0011   28.3005    7.1398 H         1 UNK         0.0811 
    125 H125       31.4613   29.9559    2.8110 H         1 UNK         0.3204 
    126 H126       33.5238   31.9708    2.4033 H         1 UNK         0.0748 
    127 H127       32.3859   32.2688    0.2197 H         1 UNK         0.0771 
    128 H128       31.4266   30.8198    0.4926 H         1 UNK         0.0771 
    129 H129       31.2129   32.2360    1.5238 H         1 UNK         0.0771 
    130 H130       34.9477   29.8308    2.9986 H         1 UNK         0.2980 
    131 H131       35.9627   28.4666    0.5867 H         1 UNK         0.0545 
    132 H132       39.0638   30.1659    0.1622 H         1 UNK         0.3459 
    133 H133       38.1963   28.6847   -0.1482 H         1 UNK         0.3459 
    134 H134       37.6470   27.5642    2.4354 H         1 UNK         0.0616 
    135 H135       36.5171   28.2170    3.5872 H         1 UNK         0.0616 
    136 H136       34.2968   27.1392    4.1833 H         1 UNK         0.0634 
    137 H137       33.5544   27.5117    2.6392 H         1 UNK         0.0634 
@<TRIPOS>BOND
     1    1    2 1    
     2    1   72 1    
     3    1   73 1    
     4    1   74 1    
     5    2    3 2    
     6    2    4 am   BACKBONE|DICT|INTERRES
     7    4    5 1    
     8    4   75 1    
     9    5    6 1    
    10    5   35 1    
    11    5   76 1    
    12    6    7 1    
    13    6   77 1    
    14    6   78 1    
    15    7    8 1    
    16    8    9 1    
    17    8   79 1    
    18    8   80 1    
    19    9   10 ar   
    20    9   14 ar   
    21   10   11 ar   
    22   10   81 1    
    23   11   12 ar   
    24   11   71 1    
    25   12   13 ar   
    26   12   82 1    
    27   13   14 ar   
    28   13   15 1    
    29   14   83 1    
    30   15   16 1    
    31   15   84 1    
    32   15   85 1    
    33   16   17 1    
    34   17   18 1    
    35   17   86 1    
    36   17   87 1    
    37   18   19 1    
    38   18   37 1    
    39   18   88 1    
    40   19   20 am   BACKBONE|DICT|INTERRES
    41   19   89 1    
    42   20   21 2    
    43   20   22 1    
    44   22   23 1    
    45   22   24 1    
    46   22   90 1    
    47   23   91 1    
    48   23   92 1    
    49   23   93 1    
    50   24   25 am   BACKBONE|DICT|INTERRES
    51   24   94 1    
    52   25   26 2    
    53   25   27 1    
    54   27   28 1    
    55   27   29 1    
    56   27   95 1    
    57   28   96 1    
    58   28   97 1    
    59   28   98 1    
    60   29   30 am   BACKBONE|DICT|INTERRES
    61   29   99 1    
    62   30   31 2    
    63   30   32 1    
    64   32   33 1    
    65   32   34 1    
    66   32  100 1    
    67   33  101 1    
    68   33  102 1    
    69   33  103 1    
    70   34   35 am   BACKBONE|DICT|INTERRES
    71   34  104 1    
    72   35   36 2    
    73   37   38 2    
    74   37   39 am   BACKBONE|DICT|INTERRES
    75   39   40 1    
    76   39  105 1    
    77   40   41 1    
    78   40   42 1    
    79   40  106 1    
    80   41  107 1    
    81   41  108 1    
    82   41  109 1    
    83   42   43 2    
    84   42   44 am   BACKBONE|DICT|INTERRES
    85   44   45 1    
    86   44  110 1    
    87   45   46 1    
    88   45   47 1    
    89   45  111 1    
    90   46  112 1    
    91   46  113 1    
    92   46  114 1    
    93   47   48 2    
    94   47   49 am   BACKBONE|DICT|INTERRES
    95   49   50 1    
    96   49  115 1    
    97   50   51 1    
    98   50   52 1    
    99   50  116 1    
   100   51  117 1    
   101   51  118 1    
   102   51  119 1    
   103   52   53 2    
   104   52   54 am   BACKBONE|DICT|INTERRES
   105   54   55 1    
   106   54  120 1    
   107   55   56 1    
   108   55   57 1    
   109   55  121 1    
   110   56  122 1    
   111   56  123 1    
   112   56  124 1    
   113   57   58 2    
   114   57   59 am   BACKBONE|DICT|INTERRES
   115   59   60 1    
   116   59  125 1    
   117   60   61 1    
   118   60   62 1    
   119   60  126 1    
   120   61  127 1    
   121   61  128 1    
   122   61  129 1    
   123   62   63 2    
   124   62   64 am   BACKBONE|DICT|INTERRES
   125   64   65 1    
   126   64  130 1    
   127   65   66 1    
   128   65   69 1    
   129   65  131 1    
   130   66   67 am   BACKBONE|DICT|INTERRES
   131   66   68 2    
   132   67  132 1    
   133   67  133 1    
   134   69   70 1    
   135   69  134 1    
   136   69  135 1    
   137   70   71 1    
   138   71  136 1    
   139   71  137 1    
@<TRIPOS>SUBSTRUCTURE
     1 UNK         1 GROUP             0       ****    0 ROOT    
