@<TRIPOS>MOLECULE
3R136
137   139    1
SMALL
USER_CHARGES


@<TRIPOS>ATOM
      1 CA         24.5111   19.4038    2.5563 C.3       0 UNK        -0.1979 
      2 C          25.5992   19.3254    1.4954 C.2       0 UNK         0.4864 
      3 O          25.5108   18.4960    0.5880 O.2       0 UNK        -0.5359 
      4 N          26.6274   20.1753    1.6079 N.am      1 UNK        -0.4318 
      5 CA         27.7198   20.3036    0.6394 C.3       1 UNK         0.0824 
      6 C6         28.9676   20.9630    1.2843 C.3       12 UNK        -0.0944 
      7 S7         28.6914   22.6757    1.8521 S.3       12 UNK        -0.2672 
      8 C8         30.1500   22.9274    2.9051 C.3       12 UNK         0.0333 
      9 C9         30.2124   24.3676    3.3852 C.ar      12 UNK        -0.0807 
     10 C10        31.1541   25.2546    2.8567 C.ar      12 UNK        -0.0894 
     11 C11        31.1864   26.5870    3.2782 C.ar      12 UNK        -0.0804 
     12 C12        30.2685   27.0313    4.2359 C.ar      12 UNK        -0.0824 
     13 C13        29.3134   26.1545    4.7617 C.ar      12 UNK        -0.0762 
     14 C14        29.3051   24.8201    4.3456 C.ar      12 UNK        -0.0782 
     15 C15        28.2784   26.6379    5.7688 C.3       12 UNK         0.0230 
     16 S16        26.5776   26.4378    5.1375 S.3       12 UNK        -0.2608 
     17 C17        26.3399   27.9561    4.1523 C.3       12 UNK        -0.0989 
     18 CA         27.0313   27.9420    2.7598 C.3       5 UNK         0.0716 
     19 N          26.7463   26.7508    1.9506 N.am      5 UNK        -0.4135 
     20 C          25.5797   26.4316    1.3744 C.2       4 UNK         0.5031 
     21 O          24.5374   27.0660    1.5490 O.2       4 UNK        -0.5229 
     22 CA         25.5808   25.2135    0.4215 C.3       4 UNK         0.0329 
     23 CB         24.5013   25.3362   -0.6737 C.3       4 UNK        -0.2001 
     24 N          26.8744   24.8950   -0.2055 N.am      4 UNK        -0.4303 
     25 C          27.6828   25.7151   -0.8987 C.2       3 UNK         0.5044 
     26 O          27.5046   26.9280   -1.0027 O.2       3 UNK        -0.5152 
     27 CA         28.9165   25.0914   -1.5757 C.3       3 UNK         0.0319 
     28 CB         30.1655   25.2884   -0.7022 C.3       3 UNK        -0.2001 
     29 N          28.7531   23.6675   -1.8821 N.am      3 UNK        -0.4354 
     30 C          27.9710   23.1861   -2.8611 C.2       2 UNK         0.4964 
     31 O          27.3564   23.8972   -3.6566 O.2       2 UNK        -0.5047 
     32 CA         27.8402   21.6539   -2.9723 C.3       2 UNK         0.0288 
     33 CB         28.8148   21.1069   -4.0283 C.3       2 UNK        -0.2113 
     34 N          28.0507   20.9420   -1.7060 N.am      2 UNK        -0.4145 
     35 C          27.2627   21.0604   -0.6275 C.2       1 UNK         0.5006 
     36 O          26.2594   21.7793   -0.5949 O.2       1 UNK        -0.5103 
     37 C          26.8240   29.2657    1.9835 C.2       5 UNK         0.5055 
     38 O          26.4335   30.2704    2.5824 O.2       5 UNK        -0.5220 
     39 N          27.1066   29.2654    0.6694 N.am      6 UNK        -0.4450 
     40 CA         27.1098   30.4692   -0.1720 C.3       6 UNK         0.0367 
     41 CB         27.1447   30.0611   -1.6531 C.3       6 UNK        -0.1929 
     42 C          28.2758   31.4242    0.1500 C.2       6 UNK         0.5070 
     43 O          28.1685   32.6206   -0.1213 O.2       6 UNK        -0.5237 
     44 N          29.3525   30.8831    0.7315 N.am      7 UNK        -0.4739 
     45 CA         30.4699   31.6206    1.3142 C.3       7 UNK         0.0276 
     46 CB         31.7805   31.1250    0.6800 C.3       7 UNK        -0.1927 
     47 C          30.4722   31.3924    2.8334 C.2       7 UNK         0.5013 
     48 O          29.9090   30.4032    3.3095 O.2       7 UNK        -0.5193 
     49 N          31.1222   32.3020    3.5625 N.am      8 UNK        -0.4253 
     50 CA         31.2549   32.2964    5.0178 C.3       8 UNK         0.0242 
     51 CB         30.0838   33.0812    5.6395 C.3       8 UNK        -0.2000 
     52 C          32.6148   32.9039    5.3904 C.2       8 UNK         0.4948 
     53 O          33.3412   33.3450    4.4966 O.2       8 UNK        -0.5275 
     54 N          32.9345   32.9011    6.6946 N.am      9 UNK        -0.4246 
     55 CA         34.1960   33.3577    7.3006 C.3       9 UNK         0.0261 
     56 CB         34.3962   34.8761    7.1014 C.3       9 UNK        -0.1959 
     57 C          35.3858   32.5219    6.7956 C.2       9 UNK         0.5033 
     58 O          36.2202   33.0164    6.0343 O.2       9 UNK        -0.5390 
     59 N          35.3817   31.2342    7.1762 N.am      10 UNK        -0.4215 
     60 CA         36.2957   30.1729    6.7217 C.3       10 UNK         0.0240 
     61 CB         37.7362   30.4326    7.2141 C.3       10 UNK        -0.1982 
     62 C          36.2183   29.9209    5.2000 C.2       10 UNK         0.4970 
     63 O          37.2085   29.5098    4.5927 O.2       10 UNK        -0.4916 
     64 N          35.0370   30.1838    4.6240 N.am      11 UNK        -0.4279 
     65 CA         34.7164   30.1177    3.1896 C.3       11 UNK         0.1003 
     66 C          35.4825   31.1553    2.3109 C.2       11 UNK         0.5709 
     67 N          36.0425   32.2193    2.8757 N.am      11 UNK        -0.7358 
     68 O          35.5474   31.0136    1.0922 O.2       11 UNK        -0.4999 
     69 C69        34.7718   28.6722    2.6138 C.3       12 UNK        -0.0954 
     70 S70        33.7789   27.4780    3.5736 S.3       12 UNK        -0.2268 
     71 C71        32.2001   27.5480    2.6796 C.3       12 UNK         0.0203 
     72 H72        24.4162   18.4469    3.0687 H         1 UNK         0.0888 
     73 H73        24.7246   20.1685    3.3030 H         1 UNK         0.0888 
     74 H74        23.5534   19.6402    2.0936 H         1 UNK         0.0888 
     75 H75        26.6323   20.8598    2.3505 H         1 UNK         0.3017 
     76 H76        28.0034   19.2961    0.3265 H         1 UNK         0.0873 
     77 H77        29.8087   20.9604    0.5887 H         1 UNK         0.0745 
     78 H78        29.2919   20.3632    2.1365 H         1 UNK         0.0745 
     79 H79        31.0506   22.6673    2.3465 H         1 UNK         0.0705 
     80 H80        30.1050   22.2532    3.7617 H         1 UNK         0.0705 
     81 H81        31.8591   24.9125    2.1112 H         1 UNK         0.1334 
     82 H82        30.2856   28.0651    4.5542 H         1 UNK         0.1417 
     83 H83        28.5662   24.1387    4.7458 H         1 UNK         0.1562 
     84 H84        28.4508   27.6785    6.0480 H         1 UNK         0.0748 
     85 H85        28.3827   26.0535    6.6839 H         1 UNK         0.0748 
     86 H86        26.6930   28.8023    4.7450 H         1 UNK         0.0940 
     87 H87        25.2654   28.1055    4.0320 H         1 UNK         0.0940 
     88 H88        28.1045   27.9134    2.9348 H         1 UNK         0.0703 
     89 H89        27.5372   26.1516    1.7646 H         1 UNK         0.3081 
     90 H90        25.3286   24.3509    1.0400 H         1 UNK         0.0719 
     91 H91        24.6716   26.2074   -1.3074 H         1 UNK         0.0809 
     92 H92        24.4870   24.4535   -1.3137 H         1 UNK         0.0809 
     93 H93        23.5053   25.4347   -0.2405 H         1 UNK         0.0809 
     94 H94        27.1254   23.9149   -0.1736 H         1 UNK         0.2990 
     95 H95        29.0746   25.6263   -2.5147 H         1 UNK         0.0690 
     96 H96        31.0644   24.9379   -1.2095 H         1 UNK         0.0788 
     97 H97        30.0833   24.7531    0.2426 H         1 UNK         0.0788 
     98 H98        30.3178   26.3428   -0.4667 H         1 UNK         0.0788 
     99 H99        29.2332   23.0133   -1.2819 H         1 UNK         0.2993 
    100 H100       26.8211   21.4431   -3.3048 H         1 UNK         0.0949 
    101 H101       28.6700   20.0380   -4.1870 H         1 UNK         0.0767 
    102 H102       28.6633   21.5980   -4.9908 H         1 UNK         0.0767 
    103 H103       29.8547   21.2676   -3.7409 H         1 UNK         0.0767 
    104 H104       28.8582   20.3369   -1.6587 H         1 UNK         0.3013 
    105 H105       27.3488   28.3915    0.2064 H         1 UNK         0.3121 
    106 H106       26.1800   31.0125    0.0092 H         1 UNK         0.0774 
    107 H107       27.1002   30.9374   -2.3010 H         1 UNK         0.0815 
    108 H108       28.0581   29.5184   -1.9001 H         1 UNK         0.0815 
    109 H109       26.2977   29.4243   -1.9094 H         1 UNK         0.0815 
    110 H110       29.3055   29.9061    0.9830 H         1 UNK         0.2987 
    111 H111       30.3644   32.6915    1.1259 H         1 UNK         0.0949 
    112 H112       32.6387   31.6683    1.0766 H         1 UNK         0.0806 
    113 H113       31.9488   30.0638    0.8625 H         1 UNK         0.0806 
    114 H114       31.7767   31.2784   -0.3992 H         1 UNK         0.0806 
    115 H115       31.6523   33.0341    3.1054 H         1 UNK         0.3010 
    116 H116       31.2402   31.2668    5.3826 H         1 UNK         0.0829 
    117 H117       29.1240   32.6540    5.3476 H         1 UNK         0.0813 
    118 H118       30.1219   33.0633    6.7290 H         1 UNK         0.0813 
    119 H119       30.0910   34.1267    5.3282 H         1 UNK         0.0813 
    120 H120       32.2611   32.5161    7.3432 H         1 UNK         0.3038 
    121 H121       34.1151   33.1805    8.3745 H         1 UNK         0.0769 
    122 H122       35.2928   35.2190    7.6189 H         1 UNK         0.0811 
    123 H123       33.5544   35.4422    7.4997 H         1 UNK         0.0811 
    124 H124       34.5107   35.1424    6.0502 H         1 UNK         0.0811 
    125 H125       34.6448   30.9310    7.7992 H         1 UNK         0.3204 
    126 H126       35.9507   29.2511    7.1926 H         1 UNK         0.0748 
    127 H127       38.3816   29.5785    7.0052 H         1 UNK         0.0771 
    128 H128       38.1811   31.3011    6.7272 H         1 UNK         0.0771 
    129 H129       37.7633   30.6008    8.2906 H         1 UNK         0.0771 
    130 H130       34.2961   30.5249    5.2149 H         1 UNK         0.2980 
    131 H131       33.6764   30.4383    3.1255 H         1 UNK         0.0545 
    132 H132       36.5224   32.8881    2.2956 H         1 UNK         0.3459 
    133 H133       35.9655   32.3805    3.8720 H         1 UNK         0.3459 
    134 H134       34.4276   28.6567    1.5783 H         1 UNK         0.0616 
    135 H135       35.8015   28.3126    2.5912 H         1 UNK         0.0616 
    136 H136       31.8164   28.5671    2.7152 H         1 UNK         0.0634 
    137 H137       32.3623   27.3104    1.6270 H         1 UNK         0.0634 
@<TRIPOS>BOND
     1    1    2 1    
     2    1   72 1    
     3    1   73 1    
     4    1   74 1    
     5    2    3 2    
     6    2    4 am   BACKBONE|DICT|INTERRES
     7    4    5 1    
     8    4   75 1    
     9    5    6 1    
    10    5   35 1    
    11    5   76 1    
    12    6    7 1    
    13    6   77 1    
    14    6   78 1    
    15    7    8 1    
    16    8    9 1    
    17    8   79 1    
    18    8   80 1    
    19    9   10 ar   
    20    9   14 ar   
    21   10   11 ar   
    22   10   81 1    
    23   11   12 ar   
    24   11   71 1    
    25   12   13 ar   
    26   12   82 1    
    27   13   14 ar   
    28   13   15 1    
    29   14   83 1    
    30   15   16 1    
    31   15   84 1    
    32   15   85 1    
    33   16   17 1    
    34   17   18 1    
    35   17   86 1    
    36   17   87 1    
    37   18   19 1    
    38   18   37 1    
    39   18   88 1    
    40   19   20 am   BACKBONE|DICT|INTERRES
    41   19   89 1    
    42   20   21 2    
    43   20   22 1    
    44   22   23 1    
    45   22   24 1    
    46   22   90 1    
    47   23   91 1    
    48   23   92 1    
    49   23   93 1    
    50   24   25 am   BACKBONE|DICT|INTERRES
    51   24   94 1    
    52   25   26 2    
    53   25   27 1    
    54   27   28 1    
    55   27   29 1    
    56   27   95 1    
    57   28   96 1    
    58   28   97 1    
    59   28   98 1    
    60   29   30 am   BACKBONE|DICT|INTERRES
    61   29   99 1    
    62   30   31 2    
    63   30   32 1    
    64   32   33 1    
    65   32   34 1    
    66   32  100 1    
    67   33  101 1    
    68   33  102 1    
    69   33  103 1    
    70   34   35 am   BACKBONE|DICT|INTERRES
    71   34  104 1    
    72   35   36 2    
    73   37   38 2    
    74   37   39 am   BACKBONE|DICT|INTERRES
    75   39   40 1    
    76   39  105 1    
    77   40   41 1    
    78   40   42 1    
    79   40  106 1    
    80   41  107 1    
    81   41  108 1    
    82   41  109 1    
    83   42   43 2    
    84   42   44 am   BACKBONE|DICT|INTERRES
    85   44   45 1    
    86   44  110 1    
    87   45   46 1    
    88   45   47 1    
    89   45  111 1    
    90   46  112 1    
    91   46  113 1    
    92   46  114 1    
    93   47   48 2    
    94   47   49 am   BACKBONE|DICT|INTERRES
    95   49   50 1    
    96   49  115 1    
    97   50   51 1    
    98   50   52 1    
    99   50  116 1    
   100   51  117 1    
   101   51  118 1    
   102   51  119 1    
   103   52   53 2    
   104   52   54 am   BACKBONE|DICT|INTERRES
   105   54   55 1    
   106   54  120 1    
   107   55   56 1    
   108   55   57 1    
   109   55  121 1    
   110   56  122 1    
   111   56  123 1    
   112   56  124 1    
   113   57   58 2    
   114   57   59 am   BACKBONE|DICT|INTERRES
   115   59   60 1    
   116   59  125 1    
   117   60   61 1    
   118   60   62 1    
   119   60  126 1    
   120   61  127 1    
   121   61  128 1    
   122   61  129 1    
   123   62   63 2    
   124   62   64 am   BACKBONE|DICT|INTERRES
   125   64   65 1    
   126   64  130 1    
   127   65   66 1    
   128   65   69 1    
   129   65  131 1    
   130   66   67 am   BACKBONE|DICT|INTERRES
   131   66   68 2    
   132   67  132 1    
   133   67  133 1    
   134   69   70 1    
   135   69  134 1    
   136   69  135 1    
   137   70   71 1    
   138   71  136 1    
   139   71  137 1    
@<TRIPOS>SUBSTRUCTURE
     1 UNK         1 GROUP             0       ****    0 ROOT    
