@<TRIPOS>MOLECULE
3R136
137   139    1
SMALL
USER_CHARGES


@<TRIPOS>ATOM
      1 CA         27.7951   20.0848    4.9315 C.3       0 UNK        -0.1979 
      2 C          27.2314   20.6909    3.6549 C.2       0 UNK         0.4864 
      3 O          26.0634   20.4676    3.3347 O.2       0 UNK        -0.5359 
      4 N          28.0504   21.4612    2.9264 N.am      1 UNK        -0.4318 
      5 CA         27.6860   22.1291    1.6695 C.3       1 UNK         0.0824 
      6 C6         28.9314   22.4061    0.7908 C.3       12 UNK        -0.0944 
      7 S7         30.1873   23.4606    1.5952 S.3       12 UNK        -0.2672 
      8 C8         29.8442   25.0969    0.8694 C.3       12 UNK         0.0333 
      9 C9         31.1197   25.7216    0.3291 C.ar      12 UNK        -0.0807 
     10 C10        32.0690   26.2240    1.2217 C.ar      12 UNK        -0.0894 
     11 C11        33.2592   26.7859    0.7558 C.ar      12 UNK        -0.0804 
     12 C12        33.4882   26.8620   -0.6213 C.ar      12 UNK        -0.0824 
     13 C13        32.5480   26.3573   -1.5272 C.ar      12 UNK        -0.0762 
     14 C14        31.3635   25.7874   -1.0469 C.ar      12 UNK        -0.0782 
     15 C15        32.8484   26.3791   -3.0193 C.3       12 UNK         0.0230 
     16 S16        32.2408   27.8941   -3.8247 S.3       12 UNK        -0.2608 
     17 C17        30.4960   27.4698   -4.1910 C.3       12 UNK        -0.0989 
     18 CA         29.3532   28.2874   -3.5015 C.3       5 UNK         0.0716 
     19 N          28.4375   27.4547   -2.7151 N.am      5 UNK        -0.4135 
     20 C          27.4648   26.7023   -3.2430 C.2       4 UNK         0.5031 
     21 O          27.2961   26.5703   -4.4565 O.2       4 UNK        -0.5229 
     22 CA         26.5131   25.9568   -2.2839 C.3       4 UNK         0.0329 
     23 CB         26.8259   24.4517   -2.3054 C.3       4 UNK        -0.2001 
     24 N          26.4889   26.4327   -0.8916 N.am      4 UNK        -0.4303 
     25 C          26.0975   27.6567   -0.5003 C.2       3 UNK         0.5044 
     26 O          25.7681   28.5425   -1.2898 O.2       3 UNK        -0.5152 
     27 CA         26.0616   27.9418    1.0124 C.3       3 UNK         0.0319 
     28 CB         25.0830   29.0690    1.3925 C.3       3 UNK        -0.2001 
     29 N          25.7458   26.7412    1.7840 N.am      3 UNK        -0.4354 
     30 C          26.3925   26.3286    2.8813 C.2       2 UNK         0.4964 
     31 O          27.3505   26.9159    3.3842 O.2       2 UNK        -0.5047 
     32 CA         25.8903   25.0317    3.5398 C.3       2 UNK         0.0288 
     33 CB         24.3758   24.7863    3.3502 C.3       2 UNK        -0.2113 
     34 N          26.6659   23.8620    3.1143 N.am      2 UNK        -0.4145 
     35 C          26.8266   23.3995    1.8636 C.2       1 UNK         0.5006 
     36 O          26.3369   23.9394    0.8702 O.2       1 UNK        -0.5103 
     37 C          29.7599   29.5095   -2.6606 C.2       5 UNK         0.5055 
     38 O          29.5758   30.6453   -3.1022 O.2       5 UNK        -0.5220 
     39 N          30.2328   29.2518   -1.4389 N.am      6 UNK        -0.4450 
     40 CA         30.4199   30.2254   -0.3713 C.3       6 UNK         0.0367 
     41 CB         31.9236   30.4531   -0.1495 C.3       6 UNK        -0.1929 
     42 C          29.7596   29.6413    0.8807 C.2       6 UNK         0.5070 
     43 O          29.5216   28.4324    0.9303 O.2       6 UNK        -0.5237 
     44 N          29.4611   30.4975    1.8635 N.am      7 UNK        -0.4739 
     45 CA         28.9207   30.0815    3.1573 C.3       7 UNK         0.0276 
     46 CB         28.3939   31.3113    3.9154 C.3       7 UNK        -0.1927 
     47 C          30.0014   29.3552    3.9687 C.2       7 UNK         0.5013 
     48 O          31.0143   29.9742    4.2965 O.2       7 UNK        -0.5193 
     49 N          29.7660   28.0809    4.3064 N.am      8 UNK        -0.4253 
     50 CA         30.7072   27.2153    5.0295 C.3       8 UNK         0.0242 
     51 CB         30.0995   25.8103    5.1685 C.3       8 UNK        -0.2000 
     52 C          31.1555   27.7595    6.3998 C.2       8 UNK         0.4948 
     53 O          32.2775   27.4807    6.8217 O.2       8 UNK        -0.5275 
     54 N          30.2953   28.5583    7.0472 N.am      9 UNK        -0.4246 
     55 CA         30.6029   29.2938    8.2752 C.3       9 UNK         0.0261 
     56 CB         29.2936   29.8025    8.9000 C.3       9 UNK        -0.1959 
     57 C          31.5847   30.4631    8.0627 C.2       9 UNK         0.5033 
     58 O          32.3131   30.8025    8.9961 O.2       9 UNK        -0.5390 
     59 N          31.5958   31.0594    6.8610 N.am      10 UNK        -0.4215 
     60 CA         32.4983   32.1516    6.4862 C.3       10 UNK         0.0240 
     61 CB         31.8289   33.0366    5.4213 C.3       10 UNK        -0.1982 
     62 C          33.8553   31.6322    5.9846 C.2       10 UNK         0.4970 
     63 O          34.8487   32.3492    6.1110 O.2       10 UNK        -0.4916 
     64 N          33.8842   30.4049    5.4448 N.am      11 UNK        -0.4279 
     65 CA         35.1059   29.6996    5.0227 C.3       11 UNK         0.1003 
     66 C          36.1036   29.3779    6.1760 C.2       11 UNK         0.5709 
     67 N          35.6838   29.3582    7.4361 N.am      11 UNK        -0.7358 
     68 O          37.2825   29.1458    5.9187 O.2       11 UNK        -0.4999 
     69 C69        34.7848   28.4054    4.2319 C.3       12 UNK        -0.0954 
     70 S70        33.7886   28.6763    2.7295 S.3       12 UNK        -0.2268 
     71 C71        34.3190   27.2377    1.7492 C.3       12 UNK         0.0203 
     72 H72        27.2141   20.4145    5.7924 H         1 UNK         0.0888 
     73 H73        27.7460   18.9973    4.8834 H         1 UNK         0.0888 
     74 H74        28.8345   20.3698    5.0943 H         1 UNK         0.0888 
     75 H75        29.0028   21.6117    3.2311 H         1 UNK         0.3017 
     76 H76        27.0542   21.4383    1.1066 H         1 UNK         0.0873 
     77 H77        29.4138   21.4573    0.5506 H         1 UNK         0.0745 
     78 H78        28.6442   22.8238   -0.1745 H         1 UNK         0.0745 
     79 H79        29.4180   25.7438    1.6382 H         1 UNK         0.0705 
     80 H80        29.0923   25.0306    0.0836 H         1 UNK         0.0705 
     81 H81        31.8875   26.1577    2.2849 H         1 UNK         0.1334 
     82 H82        34.4119   27.2874   -0.9894 H         1 UNK         0.1417 
     83 H83        30.6419   25.3801   -1.7416 H         1 UNK         0.1562 
     84 H84        32.4343   25.4963   -3.5085 H         1 UNK         0.0748 
     85 H85        33.9270   26.3200   -3.1738 H         1 UNK         0.0748 
     86 H86        30.3510   26.4024   -4.0219 H         1 UNK         0.0940 
     87 H87        30.3849   27.5776   -5.2712 H         1 UNK         0.0940 
     88 H88        28.7531   28.7143   -4.3094 H         1 UNK         0.0703 
     89 H89        28.4692   27.5663   -1.7119 H         1 UNK         0.3081 
     90 H90        25.5057   26.0926   -2.6827 H         1 UNK         0.0719 
     91 H91        26.8259   24.0641   -3.3252 H         1 UNK         0.0809 
     92 H92        27.8052   24.2385   -1.8785 H         1 UNK         0.0809 
     93 H93        26.0804   23.8815   -1.7515 H         1 UNK         0.0809 
     94 H94        26.6814   25.7374   -0.1782 H         1 UNK         0.2990 
     95 H95        27.0631   28.2788    1.2654 H         1 UNK         0.0690 
     96 H96        25.1131   29.2737    2.4628 H         1 UNK         0.0788 
     97 H97        24.0561   28.8152    1.1271 H         1 UNK         0.0788 
     98 H98        25.3354   29.9993    0.8819 H         1 UNK         0.0788 
     99 H99        25.0036   26.1571    1.4224 H         1 UNK         0.2993 
    100 H100       26.0688   25.1490    4.6100 H         1 UNK         0.0949 
    101 H101       24.0409   23.9462    3.9588 H         1 UNK         0.0767 
    102 H102       23.7955   25.6568    3.6597 H         1 UNK         0.0767 
    103 H103       24.1115   24.5633    2.3161 H         1 UNK         0.0767 
    104 H104       27.1448   23.3651    3.8512 H         1 UNK         0.3013 
    105 H105       30.3554   28.2941   -1.1348 H         1 UNK         0.3121 
    106 H106       29.9317   31.1713   -0.6156 H         1 UNK         0.0774 
    107 H107       32.3993   30.8513   -1.0457 H         1 UNK         0.0815 
    108 H108       32.1014   31.1627    0.6594 H         1 UNK         0.0815 
    109 H109       32.4329   29.5261    0.1135 H         1 UNK         0.0815 
    110 H110       29.7174   31.4694    1.7681 H         1 UNK         0.2987 
    111 H111       28.0818   29.4054    2.9902 H         1 UNK         0.0949 
    112 H112       27.5911   31.8011    3.3641 H         1 UNK         0.0806 
    113 H113       27.9905   31.0266    4.8880 H         1 UNK         0.0806 
    114 H114       29.1781   32.0486    4.0907 H         1 UNK         0.0806 
    115 H115       28.9053   27.6441    3.9762 H         1 UNK         0.3010 
    116 H116       31.6059   27.1392    4.4151 H         1 UNK         0.0829 
    117 H117       29.1701   25.8285    5.7388 H         1 UNK         0.0813 
    118 H118       30.7867   25.1348    5.6798 H         1 UNK         0.0813 
    119 H119       29.8837   25.3743    4.1928 H         1 UNK         0.0813 
    120 H120       29.3890   28.7165    6.6312 H         1 UNK         0.3038 
    121 H121       31.0683   28.5990    8.9779 H         1 UNK         0.0769 
    122 H122       28.6172   28.9794    9.1311 H         1 UNK         0.0811 
    123 H123       28.7701   30.4935    8.2379 H         1 UNK         0.0811 
    124 H124       29.4877   30.3314    9.8344 H         1 UNK         0.0811 
    125 H125       31.0431   30.6669    6.1047 H         1 UNK         0.3204 
    126 H126       32.6863   32.7731    7.3645 H         1 UNK         0.0748 
    127 H127       30.8622   33.4073    5.7624 H         1 UNK         0.0771 
    128 H128       32.4482   33.9060    5.1964 H         1 UNK         0.0771 
    129 H129       31.6736   32.5015    4.4842 H         1 UNK         0.0771 
    130 H130       33.0117   29.9140    5.2993 H         1 UNK         0.2980 
    131 H131       35.6361   30.3729    4.3466 H         1 UNK         0.0545 
    132 H132       36.3401   29.1518    8.1722 H         1 UNK         0.3459 
    133 H133       34.7162   29.5350    7.6551 H         1 UNK         0.3459 
    134 H134       34.2545   27.6926    4.8659 H         1 UNK         0.0616 
    135 H135       35.7141   27.9156    3.9337 H         1 UNK         0.0616 
    136 H136       34.5361   26.4017    2.4159 H         1 UNK         0.0634 
    137 H137       35.2547   27.4803    1.2434 H         1 UNK         0.0634 
@<TRIPOS>BOND
     1    1    2 1    
     2    1   72 1    
     3    1   73 1    
     4    1   74 1    
     5    2    3 2    
     6    2    4 am   BACKBONE|DICT|INTERRES
     7    4    5 1    
     8    4   75 1    
     9    5    6 1    
    10    5   35 1    
    11    5   76 1    
    12    6    7 1    
    13    6   77 1    
    14    6   78 1    
    15    7    8 1    
    16    8    9 1    
    17    8   79 1    
    18    8   80 1    
    19    9   10 ar   
    20    9   14 ar   
    21   10   11 ar   
    22   10   81 1    
    23   11   12 ar   
    24   11   71 1    
    25   12   13 ar   
    26   12   82 1    
    27   13   14 ar   
    28   13   15 1    
    29   14   83 1    
    30   15   16 1    
    31   15   84 1    
    32   15   85 1    
    33   16   17 1    
    34   17   18 1    
    35   17   86 1    
    36   17   87 1    
    37   18   19 1    
    38   18   37 1    
    39   18   88 1    
    40   19   20 am   BACKBONE|DICT|INTERRES
    41   19   89 1    
    42   20   21 2    
    43   20   22 1    
    44   22   23 1    
    45   22   24 1    
    46   22   90 1    
    47   23   91 1    
    48   23   92 1    
    49   23   93 1    
    50   24   25 am   BACKBONE|DICT|INTERRES
    51   24   94 1    
    52   25   26 2    
    53   25   27 1    
    54   27   28 1    
    55   27   29 1    
    56   27   95 1    
    57   28   96 1    
    58   28   97 1    
    59   28   98 1    
    60   29   30 am   BACKBONE|DICT|INTERRES
    61   29   99 1    
    62   30   31 2    
    63   30   32 1    
    64   32   33 1    
    65   32   34 1    
    66   32  100 1    
    67   33  101 1    
    68   33  102 1    
    69   33  103 1    
    70   34   35 am   BACKBONE|DICT|INTERRES
    71   34  104 1    
    72   35   36 2    
    73   37   38 2    
    74   37   39 am   BACKBONE|DICT|INTERRES
    75   39   40 1    
    76   39  105 1    
    77   40   41 1    
    78   40   42 1    
    79   40  106 1    
    80   41  107 1    
    81   41  108 1    
    82   41  109 1    
    83   42   43 2    
    84   42   44 am   BACKBONE|DICT|INTERRES
    85   44   45 1    
    86   44  110 1    
    87   45   46 1    
    88   45   47 1    
    89   45  111 1    
    90   46  112 1    
    91   46  113 1    
    92   46  114 1    
    93   47   48 2    
    94   47   49 am   BACKBONE|DICT|INTERRES
    95   49   50 1    
    96   49  115 1    
    97   50   51 1    
    98   50   52 1    
    99   50  116 1    
   100   51  117 1    
   101   51  118 1    
   102   51  119 1    
   103   52   53 2    
   104   52   54 am   BACKBONE|DICT|INTERRES
   105   54   55 1    
   106   54  120 1    
   107   55   56 1    
   108   55   57 1    
   109   55  121 1    
   110   56  122 1    
   111   56  123 1    
   112   56  124 1    
   113   57   58 2    
   114   57   59 am   BACKBONE|DICT|INTERRES
   115   59   60 1    
   116   59  125 1    
   117   60   61 1    
   118   60   62 1    
   119   60  126 1    
   120   61  127 1    
   121   61  128 1    
   122   61  129 1    
   123   62   63 2    
   124   62   64 am   BACKBONE|DICT|INTERRES
   125   64   65 1    
   126   64  130 1    
   127   65   66 1    
   128   65   69 1    
   129   65  131 1    
   130   66   67 am   BACKBONE|DICT|INTERRES
   131   66   68 2    
   132   67  132 1    
   133   67  133 1    
   134   69   70 1    
   135   69  134 1    
   136   69  135 1    
   137   70   71 1    
   138   71  136 1    
   139   71  137 1    
@<TRIPOS>SUBSTRUCTURE
     1 UNK         1 GROUP             0       ****    0 ROOT    
