@<TRIPOS>MOLECULE
3R136
137   139    1
SMALL
USER_CHARGES


@<TRIPOS>ATOM
      1 CA         26.3858   22.0926    0.5623 C.3       0 UNK        -0.1979 
      2 C          27.3542   21.9398   -0.6018 C.2       0 UNK         0.4864 
      3 O          27.7418   20.8177   -0.9317 O.2       0 UNK        -0.5359 
      4 N          27.7502   23.0576   -1.2161 N.am      1 UNK        -0.4318 
      5 CA         28.7004   23.1213   -2.3268 C.3       1 UNK         0.0824 
      6 C6         30.1873   23.1172   -1.8689 C.3       12 UNK        -0.0944 
      7 S7         30.5796   24.2660   -0.4987 S.3       12 UNK        -0.2672 
      8 C8         30.8169   23.0646    0.8551 C.3       12 UNK         0.0333 
      9 C9         31.2717   23.6812    2.1747 C.ar      12 UNK        -0.0807 
     10 C10        32.2768   24.6552    2.2096 C.ar      12 UNK        -0.0894 
     11 C11        32.7507   25.1478    3.4294 C.ar      12 UNK        -0.0804 
     12 C12        32.2213   24.6499    4.6218 C.ar      12 UNK        -0.0824 
     13 C13        31.2064   23.6908    4.6048 C.ar      12 UNK        -0.0762 
     14 C14        30.7338   23.2112    3.3788 C.ar      12 UNK        -0.0782 
     15 C15        30.6450   23.1651    5.9181 C.3       12 UNK         0.0230 
     16 S16        29.7818   24.4677    6.8541 S.3       12 UNK        -0.2608 
     17 C17        28.2510   24.6714    5.8832 C.3       12 UNK        -0.0989 
     18 CA         28.3164   25.8229    4.8493 C.3       5 UNK         0.0716 
     19 N          27.1630   25.7703    3.9475 N.am      5 UNK        -0.4135 
     20 C          26.9534   26.5885    2.9091 C.2       4 UNK         0.5031 
     21 O          27.7587   27.4508    2.5412 O.2       4 UNK        -0.5229 
     22 CA         25.5863   26.4436    2.2120 C.3       4 UNK         0.0329 
     23 CB         24.4685   27.0417    3.0841 C.3       4 UNK        -0.2001 
     24 N          25.5569   27.0935    0.9007 N.am      4 UNK        -0.4303 
     25 C          26.2217   26.6541   -0.1727 C.2       3 UNK         0.5044 
     26 O          26.8419   25.5850   -0.2010 O.2       3 UNK        -0.5152 
     27 CA         26.2076   27.5504   -1.4224 C.3       3 UNK         0.0319 
     28 CB         26.1925   29.0616   -1.1127 C.3       3 UNK        -0.2001 
     29 N          27.3879   27.1857   -2.1905 N.am      3 UNK        -0.4354 
     30 C          27.5957   27.3443   -3.4996 C.2       2 UNK         0.4964 
     31 O          26.8798   28.0172   -4.2416 O.2       2 UNK        -0.5047 
     32 CA         28.7960   26.5718   -4.0819 C.3       2 UNK         0.0288 
     33 CB         30.0449   27.4670   -4.1296 C.3       2 UNK        -0.2113 
     34 N          29.1022   25.3421   -3.3342 N.am      2 UNK        -0.4145 
     35 C          28.2835   24.2816   -3.2457 C.2       1 UNK         0.5006 
     36 O          27.2130   24.1999   -3.8523 O.2       1 UNK        -0.5103 
     37 C          28.4125   27.2128    5.5171 C.2       5 UNK         0.5055 
     38 O          27.4437   27.6503    6.1422 O.2       5 UNK        -0.5220 
     39 N          29.5565   27.8842    5.3207 N.am      6 UNK        -0.4450 
     40 CA         29.8650   29.2616    5.7319 C.3       6 UNK         0.0367 
     41 CB         29.8067   29.4250    7.2654 C.3       6 UNK        -0.1929 
     42 C          29.0754   30.3561    4.9816 C.2       6 UNK         0.5070 
     43 O          29.1439   31.5201    5.3794 O.2       6 UNK        -0.5237 
     44 N          28.3830   29.9910    3.8940 N.am      7 UNK        -0.4739 
     45 CA         27.8276   30.9194    2.9052 C.3       7 UNK         0.0276 
     46 CB         26.3436   30.6008    2.6656 C.3       7 UNK        -0.1927 
     47 C          28.6174   30.8318    1.5896 C.2       7 UNK         0.5013 
     48 O          28.7668   31.8478    0.9110 O.2       7 UNK        -0.5193 
     49 N          29.1191   29.6296    1.2610 N.am      8 UNK        -0.4253 
     50 CA         29.9517   29.3279    0.0914 C.3       8 UNK         0.0242 
     51 CB         30.2251   27.8149    0.0661 C.3       8 UNK        -0.2000 
     52 C          31.2819   30.1022    0.0523 C.2       8 UNK         0.4948 
     53 O          31.7664   30.4217   -1.0340 O.2       8 UNK        -0.5275 
     54 N          31.8356   30.3883    1.2335 N.am      9 UNK        -0.4246 
     55 CA         33.0548   31.1461    1.4859 C.3       9 UNK         0.0261 
     56 CB         34.2947   30.3133    1.0966 C.3       9 UNK        -0.1959 
     57 C          33.0596   31.5081    2.9777 C.2       9 UNK         0.5033 
     58 O          32.1515   31.1003    3.7099 O.2       9 UNK        -0.5390 
     59 N          34.0940   32.2297    3.4264 N.am      10 UNK        -0.4215 
     60 CA         34.3470   32.5412    4.8379 C.3       10 UNK         0.0240 
     61 CB         35.2802   33.7640    4.9219 C.3       10 UNK        -0.1982 
     62 C          34.9044   31.3135    5.5898 C.2       10 UNK         0.4970 
     63 O          36.0529   31.3280    6.0362 O.2       10 UNK        -0.4916 
     64 N          34.0875   30.2575    5.6716 N.am      11 UNK        -0.4279 
     65 CA         34.4383   28.9392    6.2252 C.3       11 UNK         0.1003 
     66 C          34.6211   28.9006    7.7706 C.2       11 UNK         0.5709 
     67 N          34.2043   29.9168    8.5168 N.am      11 UNK        -0.7358 
     68 O          35.1565   27.9299    8.3004 O.2       11 UNK        -0.4999 
     69 C69        33.4487   27.8347    5.7627 C.3       12 UNK        -0.0954 
     70 S70        33.1726   27.8237    3.9544 S.3       12 UNK        -0.2268 
     71 C71        33.8411   26.2078    3.4578 C.3       12 UNK         0.0203 
     72 H72        25.4671   21.5422    0.3617 H         1 UNK         0.0888 
     73 H73        26.8307   21.6957    1.4743 H         1 UNK         0.0888 
     74 H74        26.1242   23.1354    0.7399 H         1 UNK         0.0888 
     75 H75        27.3955   23.9585   -0.8965 H         1 UNK         0.3017 
     76 H76        28.5588   22.2305   -2.9431 H         1 UNK         0.0873 
     77 H77        30.4461   22.1039   -1.5584 H         1 UNK         0.0745 
     78 H78        30.8559   23.3238   -2.7066 H         1 UNK         0.0745 
     79 H79        31.5653   22.3313    0.5518 H         1 UNK         0.0705 
     80 H80        29.8836   22.5176    0.9944 H         1 UNK         0.0705 
     81 H81        32.7017   25.0197    1.2845 H         1 UNK         0.1334 
     82 H82        32.5885   25.0142    5.5703 H         1 UNK         0.1417 
     83 H83        29.9629   22.4526    3.3631 H         1 UNK         0.1562 
     84 H84        31.4675   22.7849    6.5256 H         1 UNK         0.0748 
     85 H85        29.9731   22.3212    5.7544 H         1 UNK         0.0748 
     86 H86        27.4235   24.8274    6.5784 H         1 UNK         0.0940 
     87 H87        28.0361   23.7282    5.3782 H         1 UNK         0.0940 
     88 H88        29.1999   25.6748    4.2249 H         1 UNK         0.0703 
     89 H89        26.4329   25.1222    4.2022 H         1 UNK         0.3081 
     90 H90        25.3875   25.3792    2.0689 H         1 UNK         0.0719 
     91 H91        24.6293   28.1018    3.2818 H         1 UNK         0.0809 
     92 H92        23.4935   26.9339    2.6083 H         1 UNK         0.0809 
     93 H93        24.4082   26.5402    4.0508 H         1 UNK         0.0809 
     94 H94        25.0882   27.9848    0.8465 H         1 UNK         0.2990 
     95 H95        25.3202   27.2915   -2.0032 H         1 UNK         0.0690 
     96 H96        26.3125   29.6561   -2.0184 H         1 UNK         0.0788 
     97 H97        26.9915   29.3385   -0.4286 H         1 UNK         0.0788 
     98 H98        25.2488   29.3664   -0.6598 H         1 UNK         0.0788 
     99 H99        28.0025   26.5589   -1.6866 H         1 UNK         0.2993 
    100 H100       28.5361   26.2871   -5.1038 H         1 UNK         0.0949 
    101 H101       30.3507   27.7917   -3.1350 H         1 UNK         0.0767 
    102 H102       30.8875   26.9502   -4.5896 H         1 UNK         0.0767 
    103 H103       29.8563   28.3651   -4.7195 H         1 UNK         0.0767 
    104 H104       29.9560   25.3310   -2.7922 H         1 UNK         0.3013 
    105 H105       30.2798   27.4310    4.7779 H         1 UNK         0.3121 
    106 H106       30.9001   29.4258    5.4348 H         1 UNK         0.0774 
    107 H107       30.2089   30.3918    7.5702 H         1 UNK         0.0815 
    108 H108       28.7852   29.3682    7.6417 H         1 UNK         0.0815 
    109 H109       30.3951   28.6585    7.7696 H         1 UNK         0.0815 
    110 H110       28.3295   29.0057    3.6592 H         1 UNK         0.2987 
    111 H111       27.9002   31.9487    3.2633 H         1 UNK         0.0949 
    112 H112       25.8971   31.3252    1.9831 H         1 UNK         0.0806 
    113 H113       26.2082   29.6150    2.2240 H         1 UNK         0.0806 
    114 H114       25.7752   30.6352    3.5951 H         1 UNK         0.0806 
    115 H115       28.8431   28.8302    1.8244 H         1 UNK         0.3010 
    116 H116       29.3861   29.5972   -0.8027 H         1 UNK         0.0829 
    117 H117       29.3000   27.2409    0.0263 H         1 UNK         0.0813 
    118 H118       30.8220   27.5353   -0.8022 H         1 UNK         0.0813 
    119 H119       30.7735   27.4895    0.9516 H         1 UNK         0.0813 
    120 H120       31.3487   30.1326    2.0852 H         1 UNK         0.3038 
    121 H121       33.0253   32.0701    0.9053 H         1 UNK         0.0769 
    122 H122       34.3599   29.3935    1.6783 H         1 UNK         0.0811 
    123 H123       35.2183   30.8690    1.2596 H         1 UNK         0.0811 
    124 H124       34.2761   30.0365    0.0427 H         1 UNK         0.0811 
    125 H125       34.8111   32.5071    2.7715 H         1 UNK         0.3204 
    126 H126       33.4021   32.8129    5.3140 H         1 UNK         0.0748 
    127 H127       35.4723   34.0378    5.9602 H         1 UNK         0.0771 
    128 H128       36.2452   33.5719    4.4509 H         1 UNK         0.0771 
    129 H129       34.8375   34.6342    4.4366 H         1 UNK         0.0771 
    130 H130       33.1877   30.3265    5.2071 H         1 UNK         0.2980 
    131 H131       35.4148   28.6829    5.8099 H         1 UNK         0.0545 
    132 H132       33.7692   30.7184    8.0904 H         1 UNK         0.3459 
    133 H133       34.3324   29.8813    9.5157 H         1 UNK         0.3459 
    134 H134       32.4836   27.9557    6.2547 H         1 UNK         0.0616 
    135 H135       33.8189   26.8588    6.0777 H         1 UNK         0.0616 
    136 H136       34.6492   25.9038    4.1243 H         1 UNK         0.0634 
    137 H137       34.2896   26.3153    2.4690 H         1 UNK         0.0634 
@<TRIPOS>BOND
     1    1    2 1    
     2    1   72 1    
     3    1   73 1    
     4    1   74 1    
     5    2    3 2    
     6    2    4 am   BACKBONE|DICT|INTERRES
     7    4    5 1    
     8    4   75 1    
     9    5    6 1    
    10    5   35 1    
    11    5   76 1    
    12    6    7 1    
    13    6   77 1    
    14    6   78 1    
    15    7    8 1    
    16    8    9 1    
    17    8   79 1    
    18    8   80 1    
    19    9   10 ar   
    20    9   14 ar   
    21   10   11 ar   
    22   10   81 1    
    23   11   12 ar   
    24   11   71 1    
    25   12   13 ar   
    26   12   82 1    
    27   13   14 ar   
    28   13   15 1    
    29   14   83 1    
    30   15   16 1    
    31   15   84 1    
    32   15   85 1    
    33   16   17 1    
    34   17   18 1    
    35   17   86 1    
    36   17   87 1    
    37   18   19 1    
    38   18   37 1    
    39   18   88 1    
    40   19   20 am   BACKBONE|DICT|INTERRES
    41   19   89 1    
    42   20   21 2    
    43   20   22 1    
    44   22   23 1    
    45   22   24 1    
    46   22   90 1    
    47   23   91 1    
    48   23   92 1    
    49   23   93 1    
    50   24   25 am   BACKBONE|DICT|INTERRES
    51   24   94 1    
    52   25   26 2    
    53   25   27 1    
    54   27   28 1    
    55   27   29 1    
    56   27   95 1    
    57   28   96 1    
    58   28   97 1    
    59   28   98 1    
    60   29   30 am   BACKBONE|DICT|INTERRES
    61   29   99 1    
    62   30   31 2    
    63   30   32 1    
    64   32   33 1    
    65   32   34 1    
    66   32  100 1    
    67   33  101 1    
    68   33  102 1    
    69   33  103 1    
    70   34   35 am   BACKBONE|DICT|INTERRES
    71   34  104 1    
    72   35   36 2    
    73   37   38 2    
    74   37   39 am   BACKBONE|DICT|INTERRES
    75   39   40 1    
    76   39  105 1    
    77   40   41 1    
    78   40   42 1    
    79   40  106 1    
    80   41  107 1    
    81   41  108 1    
    82   41  109 1    
    83   42   43 2    
    84   42   44 am   BACKBONE|DICT|INTERRES
    85   44   45 1    
    86   44  110 1    
    87   45   46 1    
    88   45   47 1    
    89   45  111 1    
    90   46  112 1    
    91   46  113 1    
    92   46  114 1    
    93   47   48 2    
    94   47   49 am   BACKBONE|DICT|INTERRES
    95   49   50 1    
    96   49  115 1    
    97   50   51 1    
    98   50   52 1    
    99   50  116 1    
   100   51  117 1    
   101   51  118 1    
   102   51  119 1    
   103   52   53 2    
   104   52   54 am   BACKBONE|DICT|INTERRES
   105   54   55 1    
   106   54  120 1    
   107   55   56 1    
   108   55   57 1    
   109   55  121 1    
   110   56  122 1    
   111   56  123 1    
   112   56  124 1    
   113   57   58 2    
   114   57   59 am   BACKBONE|DICT|INTERRES
   115   59   60 1    
   116   59  125 1    
   117   60   61 1    
   118   60   62 1    
   119   60  126 1    
   120   61  127 1    
   121   61  128 1    
   122   61  129 1    
   123   62   63 2    
   124   62   64 am   BACKBONE|DICT|INTERRES
   125   64   65 1    
   126   64  130 1    
   127   65   66 1    
   128   65   69 1    
   129   65  131 1    
   130   66   67 am   BACKBONE|DICT|INTERRES
   131   66   68 2    
   132   67  132 1    
   133   67  133 1    
   134   69   70 1    
   135   69  134 1    
   136   69  135 1    
   137   70   71 1    
   138   71  136 1    
   139   71  137 1    
@<TRIPOS>SUBSTRUCTURE
     1 UNK         1 GROUP             0       ****    0 ROOT    
