@<TRIPOS>MOLECULE
3R136
137   139    1
SMALL
USER_CHARGES


@<TRIPOS>ATOM
      1 CA         27.6656   17.6717    0.7730 C.3       0 UNK        -0.1979 
      2 C          28.6667   18.8166    0.7210 C.2       0 UNK         0.4864 
      3 O          29.8247   18.6005    0.3591 O.2       0 UNK        -0.5359 
      4 N          28.2325   20.0290    1.0885 N.am      1 UNK        -0.4318 
      5 CA         29.0379   21.2539    1.0571 C.3       1 UNK         0.0824 
      6 C6         28.3704   22.3962    1.8602 C.3       12 UNK        -0.0944 
      7 S7         28.2926   22.0375    3.6481 S.3       12 UNK        -0.2672 
      8 C8         29.8865   22.6974    4.2410 C.3       12 UNK         0.0333 
      9 C9         29.9079   24.2197    4.2736 C.ar      12 UNK        -0.0807 
     10 C10        30.4370   24.9401    3.2007 C.ar      12 UNK        -0.0894 
     11 C11        30.4404   26.3358    3.2151 C.ar      12 UNK        -0.0804 
     12 C12        29.9556   27.0161    4.3362 C.ar      12 UNK        -0.0824 
     13 C13        29.4247   26.3091    5.4232 C.ar      12 UNK        -0.0762 
     14 C14        29.4048   24.9100    5.3803 C.ar      12 UNK        -0.0782 
     15 C15        28.8830   27.0184    6.6652 C.3       12 UNK         0.0230 
     16 S16        28.0369   28.6081    6.3544 S.3       12 UNK        -0.2608 
     17 C17        26.7387   28.1515    5.1521 C.3       12 UNK        -0.0989 
     18 CA         26.9257   28.9194    3.8176 C.3       5 UNK         0.0716 
     19 N          26.4783   28.1396    2.6628 N.am      5 UNK        -0.4135 
     20 C          26.8684   28.3829    1.4058 C.2       4 UNK         0.5031 
     21 O          27.7015   29.2378    1.0928 O.2       4 UNK        -0.5229 
     22 CA         26.1739   27.5647    0.3057 C.3       4 UNK         0.0329 
     23 CB         25.0348   28.3809   -0.3273 C.3       4 UNK        -0.2001 
     24 N          27.1184   27.1648   -0.7380 N.am      4 UNK        -0.4303 
     25 C          28.0846   26.2565   -0.5627 C.2       3 UNK         0.5044 
     26 O          28.2390   25.6056    0.4741 O.2       3 UNK        -0.5152 
     27 CA         29.0371   26.0357   -1.7430 C.3       3 UNK         0.0319 
     28 CB         30.0145   27.2151   -1.9115 C.3       3 UNK        -0.2001 
     29 N          29.7770   24.8025   -1.4990 N.am      3 UNK        -0.4354 
     30 C          30.3117   24.0033   -2.4272 C.2       2 UNK         0.4964 
     31 O          30.2919   24.2481   -3.6341 O.2       2 UNK        -0.5047 
     32 CA         30.9923   22.7120   -1.9347 C.3       2 UNK         0.0288 
     33 CB         32.5172   22.9048   -1.8754 C.3       2 UNK        -0.2113 
     34 N          30.5216   22.2433   -0.6256 N.am      2 UNK        -0.4145 
     35 C          29.3172   21.7004   -0.3937 C.2       1 UNK         0.5006 
     36 O          28.4459   21.5674   -1.2577 O.2       1 UNK        -0.5103 
     37 C          26.2410   30.3029    3.8384 C.2       5 UNK         0.5055 
     38 O          25.1793   30.4760    3.2341 O.2       5 UNK        -0.5220 
     39 N          26.8815   31.2685    4.5091 N.am      6 UNK        -0.4450 
     40 CA         26.5481   32.6977    4.6203 C.3       6 UNK         0.0367 
     41 CB         25.1030   32.9409    5.0985 C.3       6 UNK        -0.1929 
     42 C          26.8723   33.4930    3.3436 C.2       6 UNK         0.5070 
     43 O          27.3499   34.6228    3.4476 O.2       6 UNK        -0.5237 
     44 N          26.6821   32.8781    2.1681 N.am      7 UNK        -0.4739 
     45 CA         27.2457   33.3280    0.8905 C.3       7 UNK         0.0276 
     46 CB         26.5696   32.5622   -0.2579 C.3       7 UNK        -0.1927 
     47 C          28.7766   33.1448    0.8387 C.2       7 UNK         0.5013 
     48 O          29.4569   33.8924    0.1353 O.2       7 UNK        -0.5193 
     49 N          29.2813   32.1747    1.6076 N.am      8 UNK        -0.4253 
     50 CA         30.6847   31.8996    1.8829 C.3       8 UNK         0.0242 
     51 CB         31.2360   30.9398    0.8148 C.3       8 UNK        -0.2000 
     52 C          30.7735   31.3135    3.3022 C.2       8 UNK         0.4948 
     53 O          29.7397   30.9832    3.8916 O.2       8 UNK        -0.5275 
     54 N          31.9940   31.2066    3.8388 N.am      9 UNK        -0.4246 
     55 CA         32.2479   30.6774    5.1834 C.3       9 UNK         0.0261 
     56 CB         32.0831   31.7816    6.2433 C.3       9 UNK        -0.1959 
     57 C          33.6215   30.0050    5.2856 C.2       9 UNK         0.5033 
     58 O          33.7146   28.9112    5.8448 O.2       9 UNK        -0.5390 
     59 N          34.6643   30.6309    4.7181 N.am      10 UNK        -0.4215 
     60 CA         36.0314   30.0956    4.6425 C.3       10 UNK         0.0240 
     61 CB         37.0171   31.2659    4.4618 C.3       10 UNK        -0.1982 
     62 C          36.1686   29.0254    3.5377 C.2       10 UNK         0.4970 
     63 O          36.9934   29.1657    2.6329 O.2       10 UNK        -0.4916 
     64 N          35.3195   27.9976    3.6161 N.am      11 UNK        -0.4279 
     65 CA         35.1291   26.9563    2.5955 C.3       11 UNK         0.1003 
     66 C          36.0896   25.7409    2.7328 C.2       11 UNK         0.5709 
     67 N          36.9318   25.6687    3.7571 N.am      11 UNK        -0.7358 
     68 O          36.0815   24.8517    1.8849 O.2       11 UNK        -0.4999 
     69 C69        33.6438   26.5093    2.5325 C.3       12 UNK        -0.0954 
     70 S70        32.5194   27.9235    2.2768 S.3       12 UNK        -0.2268 
     71 C71        30.9269   27.1016    1.9957 C.3       12 UNK         0.0203 
     72 H72        27.5553   17.2251   -0.2147 H         1 UNK         0.0888 
     73 H73        28.0128   16.9003    1.4598 H         1 UNK         0.0888 
     74 H74        26.6826   18.0044    1.1060 H         1 UNK         0.0888 
     75 H75        27.2699   20.1492    1.3683 H         1 UNK         0.3017 
     76 H76        29.9989   21.0235    1.5227 H         1 UNK         0.0873 
     77 H77        28.8921   23.3392    1.7101 H         1 UNK         0.0745 
     78 H78        27.3540   22.5707    1.5018 H         1 UNK         0.0745 
     79 H79        30.6964   22.3155    3.6177 H         1 UNK         0.0705 
     80 H80        30.0720   22.3100    5.2440 H         1 UNK         0.0705 
     81 H81        30.8275   24.4154    2.3405 H         1 UNK         0.1334 
     82 H82        29.9843   28.0968    4.3507 H         1 UNK         0.1417 
     83 H83        28.9976   24.3513    6.2124 H         1 UNK         0.1562 
     84 H84        29.7144   27.1985    7.3476 H         1 UNK         0.0748 
     85 H85        28.1858   26.3680    7.1958 H         1 UNK         0.0748 
     86 H86        25.7551   28.3298    5.5918 H         1 UNK         0.0940 
     87 H87        26.7903   27.0750    4.9818 H         1 UNK         0.0940 
     88 H88        27.9923   29.0887    3.6646 H         1 UNK         0.0703 
     89 H89        25.7524   27.4591    2.8307 H         1 UNK         0.3081 
     90 H90        25.7500   26.6601    0.7476 H         1 UNK         0.0719 
     91 H91        25.4058   29.2893   -0.8040 H         1 UNK         0.0809 
     92 H92        24.4989   27.8006   -1.0787 H         1 UNK         0.0809 
     93 H93        24.3073   28.6852    0.4267 H         1 UNK         0.0809 
     94 H94        27.0826   27.6822   -1.6040 H         1 UNK         0.2990 
     95 H95        28.4359   25.9226   -2.6478 H         1 UNK         0.0690 
     96 H96        30.6806   27.0594   -2.7602 H         1 UNK         0.0788 
     97 H97        30.6331   27.3597   -1.0259 H         1 UNK         0.0788 
     98 H98        29.4803   28.1491   -2.0896 H         1 UNK         0.0788 
     99 H99        29.7674   24.5094   -0.5305 H         1 UNK         0.2993 
    100 H100       30.7741   21.9336   -2.6696 H         1 UNK         0.0949 
    101 H101       32.8010   23.6630   -1.1441 H         1 UNK         0.0767 
    102 H102       33.0256   21.9765   -1.6137 H         1 UNK         0.0767 
    103 H103       32.9084   23.2234   -2.8429 H         1 UNK         0.0767 
    104 H104       31.1826   22.3086    0.1350 H         1 UNK         0.3013 
    105 H105       27.7962   31.0243    4.8774 H         1 UNK         0.3121 
    106 H106       27.2120   33.0816    5.3967 H         1 UNK         0.0774 
    107 H107       24.9470   33.9959    5.3271 H         1 UNK         0.0815 
    108 H108       24.3664   32.6667    4.3432 H         1 UNK         0.0815 
    109 H109       24.8838   32.3765    6.0047 H         1 UNK         0.0815 
    110 H110       26.2308   31.9702    2.1825 H         1 UNK         0.2987 
    111 H111       27.0329   34.3928    0.7728 H         1 UNK         0.0949 
    112 H112       26.9485   32.8966   -1.2246 H         1 UNK         0.0806 
    113 H113       26.7529   31.4892   -0.1899 H         1 UNK         0.0806 
    114 H114       25.4909   32.7196   -0.2603 H         1 UNK         0.0806 
    115 H115       28.6472   31.6255    2.1747 H         1 UNK         0.3010 
    116 H116       31.2471   32.8355    1.8660 H         1 UNK         0.0829 
    117 H117       31.1768   31.3814   -0.1800 H         1 UNK         0.0813 
    118 H118       32.2832   30.6979    0.9972 H         1 UNK         0.0813 
    119 H119       30.6768   30.0040    0.7935 H         1 UNK         0.0813 
    120 H120       32.7968   31.4372    3.2722 H         1 UNK         0.3038 
    121 H121       31.5133   29.8961    5.3939 H         1 UNK         0.0769 
    122 H122       32.7559   32.6205    6.0630 H         1 UNK         0.0811 
    123 H123       32.2949   31.3988    7.2426 H         1 UNK         0.0811 
    124 H124       31.0634   32.1671    6.2562 H         1 UNK         0.0811 
    125 H125       34.5235   31.5401    4.3044 H         1 UNK         0.3204 
    126 H126       36.2700   29.6083    5.5905 H         1 UNK         0.0748 
    127 H127       38.0482   30.9098    4.4456 H         1 UNK         0.0771 
    128 H128       36.8425   31.8027    3.5284 H         1 UNK         0.0771 
    129 H129       36.9382   31.9812    5.2808 H         1 UNK         0.0771 
    130 H130       34.6693   27.9842    4.3958 H         1 UNK         0.2980 
    131 H131       35.3663   27.3971    1.6254 H         1 UNK         0.0545 
    132 H132       36.9492   26.3958    4.4538 H         1 UNK         0.3459 
    133 H133       37.5540   24.8794    3.8316 H         1 UNK         0.3459 
    134 H134       33.4885   25.7975    1.7196 H         1 UNK         0.0616 
    135 H135       33.3577   26.0006    3.4550 H         1 UNK         0.0616 
    136 H136       31.0164   26.4393    1.1340 H         1 UNK         0.0634 
    137 H137       30.1807   27.8511    1.7291 H         1 UNK         0.0634 
@<TRIPOS>BOND
     1    1    2 1    
     2    1   72 1    
     3    1   73 1    
     4    1   74 1    
     5    2    3 2    
     6    2    4 am   BACKBONE|DICT|INTERRES
     7    4    5 1    
     8    4   75 1    
     9    5    6 1    
    10    5   35 1    
    11    5   76 1    
    12    6    7 1    
    13    6   77 1    
    14    6   78 1    
    15    7    8 1    
    16    8    9 1    
    17    8   79 1    
    18    8   80 1    
    19    9   10 ar   
    20    9   14 ar   
    21   10   11 ar   
    22   10   81 1    
    23   11   12 ar   
    24   11   71 1    
    25   12   13 ar   
    26   12   82 1    
    27   13   14 ar   
    28   13   15 1    
    29   14   83 1    
    30   15   16 1    
    31   15   84 1    
    32   15   85 1    
    33   16   17 1    
    34   17   18 1    
    35   17   86 1    
    36   17   87 1    
    37   18   19 1    
    38   18   37 1    
    39   18   88 1    
    40   19   20 am   BACKBONE|DICT|INTERRES
    41   19   89 1    
    42   20   21 2    
    43   20   22 1    
    44   22   23 1    
    45   22   24 1    
    46   22   90 1    
    47   23   91 1    
    48   23   92 1    
    49   23   93 1    
    50   24   25 am   BACKBONE|DICT|INTERRES
    51   24   94 1    
    52   25   26 2    
    53   25   27 1    
    54   27   28 1    
    55   27   29 1    
    56   27   95 1    
    57   28   96 1    
    58   28   97 1    
    59   28   98 1    
    60   29   30 am   BACKBONE|DICT|INTERRES
    61   29   99 1    
    62   30   31 2    
    63   30   32 1    
    64   32   33 1    
    65   32   34 1    
    66   32  100 1    
    67   33  101 1    
    68   33  102 1    
    69   33  103 1    
    70   34   35 am   BACKBONE|DICT|INTERRES
    71   34  104 1    
    72   35   36 2    
    73   37   38 2    
    74   37   39 am   BACKBONE|DICT|INTERRES
    75   39   40 1    
    76   39  105 1    
    77   40   41 1    
    78   40   42 1    
    79   40  106 1    
    80   41  107 1    
    81   41  108 1    
    82   41  109 1    
    83   42   43 2    
    84   42   44 am   BACKBONE|DICT|INTERRES
    85   44   45 1    
    86   44  110 1    
    87   45   46 1    
    88   45   47 1    
    89   45  111 1    
    90   46  112 1    
    91   46  113 1    
    92   46  114 1    
    93   47   48 2    
    94   47   49 am   BACKBONE|DICT|INTERRES
    95   49   50 1    
    96   49  115 1    
    97   50   51 1    
    98   50   52 1    
    99   50  116 1    
   100   51  117 1    
   101   51  118 1    
   102   51  119 1    
   103   52   53 2    
   104   52   54 am   BACKBONE|DICT|INTERRES
   105   54   55 1    
   106   54  120 1    
   107   55   56 1    
   108   55   57 1    
   109   55  121 1    
   110   56  122 1    
   111   56  123 1    
   112   56  124 1    
   113   57   58 2    
   114   57   59 am   BACKBONE|DICT|INTERRES
   115   59   60 1    
   116   59  125 1    
   117   60   61 1    
   118   60   62 1    
   119   60  126 1    
   120   61  127 1    
   121   61  128 1    
   122   61  129 1    
   123   62   63 2    
   124   62   64 am   BACKBONE|DICT|INTERRES
   125   64   65 1    
   126   64  130 1    
   127   65   66 1    
   128   65   69 1    
   129   65  131 1    
   130   66   67 am   BACKBONE|DICT|INTERRES
   131   66   68 2    
   132   67  132 1    
   133   67  133 1    
   134   69   70 1    
   135   69  134 1    
   136   69  135 1    
   137   70   71 1    
   138   71  136 1    
   139   71  137 1    
@<TRIPOS>SUBSTRUCTURE
     1 UNK         1 GROUP             0       ****    0 ROOT    
