@<TRIPOS>MOLECULE
3R136
137   139    1
SMALL
USER_CHARGES


@<TRIPOS>ATOM
      1 CA         26.0493   20.5799    1.1378 C.3       0 UNK        -0.1979 
      2 C          26.8584   21.8238    0.8044 C.2       0 UNK         0.4864 
      3 O          26.9295   22.7409    1.6210 O.2       0 UNK        -0.5359 
      4 N          27.4472   21.8733   -0.3986 N.am      1 UNK        -0.4318 
      5 CA         28.3491   22.9104   -0.9370 C.3       1 UNK         0.0824 
      6 C6         29.6452   23.1200   -0.1092 C.3       12 UNK        -0.0944 
      7 S7         30.5168   21.5634    0.2841 S.3       12 UNK        -0.2672 
      8 C8         31.9461   22.1737    1.2477 C.3       12 UNK         0.0333 
      9 C9         31.6391   22.7826    2.6197 C.ar      12 UNK        -0.0807 
     10 C10        32.6971   23.3403    3.3441 C.ar      12 UNK        -0.0894 
     11 C11        32.4854   23.9515    4.5864 C.ar      12 UNK        -0.0804 
     12 C12        31.1884   23.9974    5.1087 C.ar      12 UNK        -0.0824 
     13 C13        30.1164   23.4560    4.3917 C.ar      12 UNK        -0.0762 
     14 C14        30.3529   22.8211    3.1717 C.ar      12 UNK        -0.0782 
     15 C15        28.6886   23.5974    4.8955 C.3       12 UNK         0.0230 
     16 S16        28.1056   25.3213    4.7910 S.3       12 UNK        -0.2608 
     17 C17        28.3505   25.7628    3.0256 C.3       12 UNK        -0.0989 
     18 CA         29.7317   26.3798    2.6438 C.3       5 UNK         0.0716 
     19 N          29.7928   26.6981    1.2112 N.am      5 UNK        -0.4135 
     20 C          30.9293   26.7354    0.4956 C.2       4 UNK         0.5031 
     21 O          32.0230   26.4113    0.9578 O.2       4 UNK        -0.5229 
     22 CA         30.8748   27.2141   -0.9723 C.3       4 UNK         0.0329 
     23 CB         31.4750   26.1851   -1.9476 C.3       4 UNK        -0.2001 
     24 N          29.5293   27.5697   -1.4226 N.am      4 UNK        -0.4303 
     25 C          29.0304   28.8143   -1.4269 C.2       3 UNK         0.5044 
     26 O          29.6834   29.8130   -1.1277 O.2       3 UNK        -0.5152 
     27 CA         27.5507   28.9906   -1.8255 C.3       3 UNK         0.0319 
     28 CB         27.4420   29.5327   -3.2596 C.3       3 UNK        -0.2001 
     29 N          26.7393   27.7743   -1.7124 N.am      3 UNK        -0.4354 
     30 C          26.5252   27.0872   -0.5821 C.2       2 UNK         0.4964 
     31 O          26.9814   27.4202    0.5107 O.2       2 UNK        -0.5047 
     32 CA         25.7207   25.7799   -0.6900 C.3       2 UNK         0.0288 
     33 CB         24.8842   25.6621   -1.9848 C.3       2 UNK        -0.2113 
     34 N          26.5783   24.5993   -0.5307 N.am      2 UNK        -0.4145 
     35 C          27.6695   24.2677   -1.2381 C.2       1 UNK         0.5006 
     36 O          28.1475   24.9830   -2.1208 O.2       1 UNK        -0.5103 
     37 C          30.0727   27.6286    3.4845 C.2       5 UNK         0.5055 
     38 O          29.8700   28.7557    3.0317 O.2       5 UNK        -0.5220 
     39 N          30.4918   27.3904    4.7362 N.am      6 UNK        -0.4450 
     40 CA         30.6714   28.3755    5.8117 C.3       6 UNK         0.0367 
     41 CB         31.2233   27.6585    7.0558 C.3       6 UNK        -0.1929 
     42 C          29.4029   29.1719    6.1835 C.2       6 UNK         0.5070 
     43 O          29.5124   30.2004    6.8511 O.2       6 UNK        -0.5237 
     44 N          28.2254   28.6960    5.7545 N.am      7 UNK        -0.4739 
     45 CA         26.9532   29.4196    5.8158 C.3       7 UNK         0.0276 
     46 CB         25.8111   28.4365    5.5112 C.3       7 UNK        -0.1927 
     47 C          26.8933   30.6275    4.8571 C.2       7 UNK         0.5013 
     48 O          26.0734   31.5211    5.0735 O.2       7 UNK        -0.5193 
     49 N          27.7473   30.6332    3.8262 N.am      8 UNK        -0.4253 
     50 CA         27.9399   31.7194    2.8699 C.3       8 UNK         0.0242 
     51 CB         27.7914   31.1338    1.4540 C.3       8 UNK        -0.2000 
     52 C          29.3330   32.3397    3.0802 C.2       8 UNK         0.4948 
     53 O          30.0638   31.9442    3.9921 O.2       8 UNK        -0.5275 
     54 N          29.6981   33.3067    2.2288 N.am      9 UNK        -0.4246 
     55 CA         31.0095   33.9652    2.2198 C.3       9 UNK         0.0261 
     56 CB         30.8769   35.3279    1.5131 C.3       9 UNK        -0.1959 
     57 C          32.0958   33.0692    1.5862 C.2       9 UNK         0.5033 
     58 O          32.6704   33.4293    0.5562 O.2       9 UNK        -0.5390 
     59 N          32.3414   31.9085    2.2006 N.am      10 UNK        -0.4215 
     60 CA         33.2731   30.8743    1.7598 C.3       10 UNK         0.0240 
     61 CB         32.6124   30.0335    0.6535 C.3       10 UNK        -0.1982 
     62 C          33.6780   30.0039    2.9579 C.2       10 UNK         0.4970 
     63 O          33.1468   30.1872    4.0539 O.2       10 UNK        -0.4916 
     64 N          34.6214   29.0817    2.7258 N.am      11 UNK        -0.4279 
     65 CA         35.1507   28.1177    3.7079 C.3       11 UNK         0.1003 
     66 C          35.8791   28.7588    4.9331 C.2       11 UNK         0.5709 
     67 N          36.4085   29.9710    4.8130 N.am      11 UNK        -0.7358 
     68 O          35.9926   28.1538    5.9965 O.2       11 UNK        -0.4999 
     69 C69        34.1050   27.0233    4.0862 C.3       12 UNK        -0.0954 
     70 S70        34.8955   25.4059    4.3878 S.3       12 UNK        -0.2268 
     71 C71        33.6501   24.5254    5.3919 C.3       12 UNK         0.0203 
     72 H72        26.4552   20.0991    2.0274 H         1 UNK         0.0888 
     73 H73        25.0127   20.8492    1.3383 H         1 UNK         0.0888 
     74 H74        26.0616   19.8544    0.3247 H         1 UNK         0.0888 
     75 H75        27.3075   21.0907   -1.0227 H         1 UNK         0.3017 
     76 H76        28.6571   22.5247   -1.9103 H         1 UNK         0.0873 
     77 H77        29.4221   23.6628    0.8074 H         1 UNK         0.0745 
     78 H78        30.3463   23.7471   -0.6570 H         1 UNK         0.0745 
     79 H79        32.4761   22.9123    0.6438 H         1 UNK         0.0705 
     80 H80        32.6350   21.3399    1.3891 H         1 UNK         0.0705 
     81 H81        33.6961   23.2991    2.9321 H         1 UNK         0.1334 
     82 H82        31.0068   24.4639    6.0676 H         1 UNK         0.1417 
     83 H83        29.5131   22.3912    2.6456 H         1 UNK         0.1562 
     84 H84        28.6339   23.2639    5.9326 H         1 UNK         0.0748 
     85 H85        28.0068   22.9592    4.3304 H         1 UNK         0.0748 
     86 H86        27.5530   26.4621    2.7738 H         1 UNK         0.0940 
     87 H87        28.1617   24.8773    2.4202 H         1 UNK         0.0940 
     88 H88        30.5039   25.6381    2.8458 H         1 UNK         0.0703 
     89 H89        28.9334   27.0504    0.8023 H         1 UNK         0.3081 
     90 H90        31.5166   28.0941   -1.0227 H         1 UNK         0.0719 
     91 H91        30.8116   25.3395   -2.1158 H         1 UNK         0.0809 
     92 H92        31.6668   26.6416   -2.9187 H         1 UNK         0.0809 
     93 H93        32.4271   25.7941   -1.5861 H         1 UNK         0.0809 
     94 H94        28.9296   26.8006   -1.7076 H         1 UNK         0.2990 
     95 H95        27.1233   29.7316   -1.1473 H         1 UNK         0.0690 
     96 H96        26.4079   29.7552   -3.5238 H         1 UNK         0.0788 
     97 H97        27.8318   28.8220   -3.9896 H         1 UNK         0.0788 
     98 H98        28.0086   30.4584   -3.3713 H         1 UNK         0.0788 
     99 H99        26.3575   27.4029   -2.5704 H         1 UNK         0.2993 
    100 H100       25.0290   25.7806    0.1540 H         1 UNK         0.0949 
    101 H101       24.2274   26.5240   -2.1111 H         1 UNK         0.0767 
    102 H102       25.5058   25.5807   -2.8773 H         1 UNK         0.0767 
    103 H103       24.2455   24.7792   -1.9531 H         1 UNK         0.0767 
    104 H104       26.3531   23.9867    0.2484 H         1 UNK         0.3013 
    105 H105       30.5840   26.4230    5.0092 H         1 UNK         0.3121 
    106 H106       31.4084   29.1029    5.4758 H         1 UNK         0.0774 
    107 H107       31.3750   28.3618    7.8759 H         1 UNK         0.0815 
    108 H108       30.5402   26.8868    7.4129 H         1 UNK         0.0815 
    109 H109       32.1873   27.1929    6.8588 H         1 UNK         0.0815 
    110 H110       28.2221   27.8155    5.2581 H         1 UNK         0.2987 
    111 H111       26.8237   29.7998    6.8314 H         1 UNK         0.0949 
    112 H112       24.8413   28.9313    5.5793 H         1 UNK         0.0806 
    113 H113       25.8010   27.6070    6.2186 H         1 UNK         0.0806 
    114 H114       25.8950   28.0195    4.5065 H         1 UNK         0.0806 
    115 H115       28.4464   29.8972    3.7660 H         1 UNK         0.3010 
    116 H116       27.1935   32.5027    3.0166 H         1 UNK         0.0829 
    117 H117       28.5692   30.3975    1.2478 H         1 UNK         0.0813 
    118 H118       26.8286   30.6373    1.3304 H         1 UNK         0.0813 
    119 H119       27.8564   31.9040    0.6853 H         1 UNK         0.0813 
    120 H120       29.0626   33.5669    1.4884 H         1 UNK         0.3038 
    121 H121       31.3132   34.1586    3.2512 H         1 UNK         0.0769 
    122 H122       31.8282   35.8619    1.5139 H         1 UNK         0.0811 
    123 H123       30.1495   35.9664    2.0147 H         1 UNK         0.0811 
    124 H124       30.5664   35.2165    0.4733 H         1 UNK         0.0811 
    125 H125       31.8269   31.6869    3.0524 H         1 UNK         0.3204 
    126 H126       34.1764   31.3489    1.3712 H         1 UNK         0.0748 
    127 H127       33.2652   29.2302    0.3112 H         1 UNK         0.0771 
    128 H128       31.6861   29.5801    1.0088 H         1 UNK         0.0771 
    129 H129       32.3672   30.6412   -0.2179 H         1 UNK         0.0771 
    130 H130       35.0203   29.0174    1.8006 H         1 UNK         0.2980 
    131 H131       35.9522   27.6209    3.1601 H         1 UNK         0.0545 
    132 H132       36.3328   30.4813    3.9482 H         1 UNK         0.3459 
    133 H133       36.8832   30.3806    5.6019 H         1 UNK         0.3459 
    134 H134       33.5185   27.3288    4.9523 H         1 UNK         0.0616 
    135 H135       33.3895   26.8779    3.2756 H         1 UNK         0.0616 
    136 H136       34.1477   23.6974    5.8980 H         1 UNK         0.0634 
    137 H137       33.2931   25.1913    6.1778 H         1 UNK         0.0634 
@<TRIPOS>BOND
     1    1    2 1    
     2    1   72 1    
     3    1   73 1    
     4    1   74 1    
     5    2    3 2    
     6    2    4 am   BACKBONE|DICT|INTERRES
     7    4    5 1    
     8    4   75 1    
     9    5    6 1    
    10    5   35 1    
    11    5   76 1    
    12    6    7 1    
    13    6   77 1    
    14    6   78 1    
    15    7    8 1    
    16    8    9 1    
    17    8   79 1    
    18    8   80 1    
    19    9   10 ar   
    20    9   14 ar   
    21   10   11 ar   
    22   10   81 1    
    23   11   12 ar   
    24   11   71 1    
    25   12   13 ar   
    26   12   82 1    
    27   13   14 ar   
    28   13   15 1    
    29   14   83 1    
    30   15   16 1    
    31   15   84 1    
    32   15   85 1    
    33   16   17 1    
    34   17   18 1    
    35   17   86 1    
    36   17   87 1    
    37   18   19 1    
    38   18   37 1    
    39   18   88 1    
    40   19   20 am   BACKBONE|DICT|INTERRES
    41   19   89 1    
    42   20   21 2    
    43   20   22 1    
    44   22   23 1    
    45   22   24 1    
    46   22   90 1    
    47   23   91 1    
    48   23   92 1    
    49   23   93 1    
    50   24   25 am   BACKBONE|DICT|INTERRES
    51   24   94 1    
    52   25   26 2    
    53   25   27 1    
    54   27   28 1    
    55   27   29 1    
    56   27   95 1    
    57   28   96 1    
    58   28   97 1    
    59   28   98 1    
    60   29   30 am   BACKBONE|DICT|INTERRES
    61   29   99 1    
    62   30   31 2    
    63   30   32 1    
    64   32   33 1    
    65   32   34 1    
    66   32  100 1    
    67   33  101 1    
    68   33  102 1    
    69   33  103 1    
    70   34   35 am   BACKBONE|DICT|INTERRES
    71   34  104 1    
    72   35   36 2    
    73   37   38 2    
    74   37   39 am   BACKBONE|DICT|INTERRES
    75   39   40 1    
    76   39  105 1    
    77   40   41 1    
    78   40   42 1    
    79   40  106 1    
    80   41  107 1    
    81   41  108 1    
    82   41  109 1    
    83   42   43 2    
    84   42   44 am   BACKBONE|DICT|INTERRES
    85   44   45 1    
    86   44  110 1    
    87   45   46 1    
    88   45   47 1    
    89   45  111 1    
    90   46  112 1    
    91   46  113 1    
    92   46  114 1    
    93   47   48 2    
    94   47   49 am   BACKBONE|DICT|INTERRES
    95   49   50 1    
    96   49  115 1    
    97   50   51 1    
    98   50   52 1    
    99   50  116 1    
   100   51  117 1    
   101   51  118 1    
   102   51  119 1    
   103   52   53 2    
   104   52   54 am   BACKBONE|DICT|INTERRES
   105   54   55 1    
   106   54  120 1    
   107   55   56 1    
   108   55   57 1    
   109   55  121 1    
   110   56  122 1    
   111   56  123 1    
   112   56  124 1    
   113   57   58 2    
   114   57   59 am   BACKBONE|DICT|INTERRES
   115   59   60 1    
   116   59  125 1    
   117   60   61 1    
   118   60   62 1    
   119   60  126 1    
   120   61  127 1    
   121   61  128 1    
   122   61  129 1    
   123   62   63 2    
   124   62   64 am   BACKBONE|DICT|INTERRES
   125   64   65 1    
   126   64  130 1    
   127   65   66 1    
   128   65   69 1    
   129   65  131 1    
   130   66   67 am   BACKBONE|DICT|INTERRES
   131   66   68 2    
   132   67  132 1    
   133   67  133 1    
   134   69   70 1    
   135   69  134 1    
   136   69  135 1    
   137   70   71 1    
   138   71  136 1    
   139   71  137 1    
@<TRIPOS>SUBSTRUCTURE
     1 UNK         1 GROUP             0       ****    0 ROOT    
