@<TRIPOS>MOLECULE
3R136
137   139    1
SMALL
USER_CHARGES


@<TRIPOS>ATOM
      1 CA         26.8935   19.2974    2.9558 C.3       0 UNK        -0.1979 
      2 C          27.0623   20.3754    1.8960 C.2       0 UNK         0.4864 
      3 O          26.1759   21.2148    1.7323 O.2       0 UNK        -0.5359 
      4 N          28.1988   20.3661    1.1840 N.am      1 UNK        -0.4318 
      5 CA         28.5456   21.3156    0.1160 C.3       1 UNK         0.0824 
      6 C6         29.8201   20.8835   -0.6541 C.3       12 UNK        -0.0944 
      7 S7         31.2956   20.6418    0.4026 S.3       12 UNK        -0.2672 
      8 C8         32.5240   21.7429   -0.3722 C.3       12 UNK         0.0333 
      9 C9         32.3697   23.1908    0.0736 C.ar      12 UNK        -0.0807 
     10 C10        32.9783   23.6291    1.2545 C.ar      12 UNK        -0.0894 
     11 C11        32.8655   24.9621    1.6622 C.ar      12 UNK        -0.0804 
     12 C12        32.1324   25.8546    0.8768 C.ar      12 UNK        -0.0824 
     13 C13        31.5078   25.4316   -0.3030 C.ar      12 UNK        -0.0762 
     14 C14        31.6402   24.0980   -0.7012 C.ar      12 UNK        -0.0782 
     15 C15        30.6295   26.3766   -1.1184 C.3       12 UNK         0.0230 
     16 S16        31.2217   28.1021   -1.1076 S.3       12 UNK        -0.2608 
     17 C17        29.7177   29.0540   -1.5163 C.3       12 UNK        -0.0989 
     18 CA         28.6582   29.2042   -0.3794 C.3       5 UNK         0.0716 
     19 N          27.7315   28.0617   -0.3156 N.am      5 UNK        -0.4135 
     20 C          26.7708   27.8669   -1.2368 C.2       4 UNK         0.5031 
     21 O          26.4840   28.7001   -2.0985 O.2       4 UNK        -0.5229 
     22 CA         26.0218   26.5210   -1.2693 C.3       4 UNK         0.0329 
     23 CB         26.6185   25.6122   -2.3568 C.3       4 UNK        -0.2001 
     24 N          26.0214   25.8051    0.0031 N.am      4 UNK        -0.4303 
     25 C          25.2555   26.1334    1.0536 C.2       3 UNK         0.5044 
     26 O          24.4303   27.0473    1.0342 O.2       3 UNK        -0.5152 
     27 CA         25.4425   25.3268    2.3556 C.3       3 UNK         0.0319 
     28 CB         24.3033   24.3085    2.5231 C.3       3 UNK        -0.2001 
     29 N          26.7259   24.6261    2.4781 N.am      3 UNK        -0.4354 
     30 C          27.9352   25.1986    2.3926 C.2       2 UNK         0.4964 
     31 O          28.1078   26.3889    2.1357 O.2       2 UNK        -0.5047 
     32 CA         29.1549   24.2778    2.5293 C.3       2 UNK         0.0288 
     33 CB         29.5136   24.0630    4.0076 C.3       2 UNK        -0.2113 
     34 N          28.9993   22.9803    1.8689 N.am      2 UNK        -0.4145 
     35 C          28.6393   22.7803    0.5905 C.2       1 UNK         0.5006 
     36 O          28.3599   23.6854   -0.1984 O.2       1 UNK        -0.5103 
     37 C          29.2492   29.6575    0.9753 C.2       5 UNK         0.5055 
     38 O          30.0434   30.6008    0.9766 O.2       5 UNK        -0.5220 
     39 N          28.8608   29.0393    2.1031 N.am      6 UNK        -0.4450 
     40 CA         29.3511   29.3224    3.4625 C.3       6 UNK         0.0367 
     41 CB         28.6050   28.4474    4.4830 C.3       6 UNK        -0.1929 
     42 C          29.2943   30.7948    3.9010 C.2       6 UNK         0.5070 
     43 O          30.1514   31.2148    4.6758 O.2       6 UNK        -0.5237 
     44 N          28.3310   31.5623    3.3741 N.am      7 UNK        -0.4739 
     45 CA         28.2136   33.0095    3.5818 C.3       7 UNK         0.0276 
     46 CB         26.8929   33.5011    2.9679 C.3       7 UNK        -0.1927 
     47 C          29.4016   33.8192    3.0229 C.2       7 UNK         0.5013 
     48 O          29.6827   34.8998    3.5426 O.2       7 UNK        -0.5193 
     49 N          30.0729   33.2882    1.9917 N.am      8 UNK        -0.4253 
     50 CA         31.2831   33.8543    1.3975 C.3       8 UNK         0.0242 
     51 CB         31.1740   33.7935   -0.1356 C.3       8 UNK        -0.2000 
     52 C          32.5356   33.1052    1.8763 C.2       8 UNK         0.4948 
     53 O          33.5386   33.7495    2.1842 O.2       8 UNK        -0.5275 
     54 N          32.4661   31.7660    1.9233 N.am      9 UNK        -0.4246 
     55 CA         33.5860   30.8890    2.2813 C.3       9 UNK         0.0261 
     56 CB         33.2768   29.4567    1.8191 C.3       9 UNK        -0.1959 
     57 C          33.9581   30.9036    3.7743 C.2       9 UNK         0.5033 
     58 O          35.0972   30.5689    4.1014 O.2       9 UNK        -0.5390 
     59 N          33.0031   31.2602    4.6468 N.am      10 UNK        -0.4215 
     60 CA         33.1017   31.3275    6.1119 C.3       10 UNK         0.0240 
     61 CB         34.1742   32.3453    6.5570 C.3       10 UNK        -0.1982 
     62 C          33.2587   29.9594    6.8083 C.2       10 UNK         0.4970 
     63 O          33.5647   29.9284    8.0016 O.2       10 UNK        -0.4916 
     64 N          33.0261   28.8587    6.0806 N.am      11 UNK        -0.4279 
     65 CA         33.0755   27.4818    6.5968 C.3       11 UNK         0.1003 
     66 C          31.7898   27.0132    7.3406 C.2       11 UNK         0.5709 
     67 N          30.7370   27.8180    7.4229 N.am      11 UNK        -0.7358 
     68 O          31.7555   25.9062    7.8734 O.2       11 UNK        -0.4999 
     69 C69        33.5470   26.4800    5.5102 C.3       12 UNK        -0.0954 
     70 S70        32.4459   26.3419    4.0617 S.3       12 UNK        -0.2268 
     71 C71        33.5587   25.4407    2.9326 C.3       12 UNK         0.0203 
     72 H72        26.0027   18.7050    2.7482 H         1 UNK         0.0888 
     73 H73        27.7489   18.6225    2.9917 H         1 UNK         0.0888 
     74 H74        26.7786   19.7528    3.9393 H         1 UNK         0.0888 
     75 H75        28.8967   19.6590    1.3704 H         1 UNK         0.3017 
     76 H76        27.7172   21.2906   -0.5955 H         1 UNK         0.0873 
     77 H77        29.6268   19.9371   -1.1614 H         1 UNK         0.0745 
     78 H78        30.0406   21.5933   -1.4531 H         1 UNK         0.0745 
     79 H79        33.5207   21.3888   -0.1047 H         1 UNK         0.0705 
     80 H80        32.4623   21.6631   -1.4586 H         1 UNK         0.0705 
     81 H81        33.5460   22.9291    1.8523 H         1 UNK         0.1334 
     82 H82        32.0295   26.8779    1.2069 H         1 UNK         0.1417 
     83 H83        31.1552   23.7604   -1.6067 H         1 UNK         0.1562 
     84 H84        29.6267   26.3182   -0.7005 H         1 UNK         0.0748 
     85 H85        30.5569   26.0409   -2.1541 H         1 UNK         0.0748 
     86 H86        29.2716   28.6362   -2.4199 H         1 UNK         0.0940 
     87 H87        30.0567   30.0498   -1.8075 H         1 UNK         0.0940 
     88 H88        28.0458   30.0658   -0.6547 H         1 UNK         0.0703 
     89 H89        27.9082   27.3498    0.3858 H         1 UNK         0.3081 
     90 H90        24.9852   26.7315   -1.5419 H         1 UNK         0.0719 
     91 H91        26.5635   26.0884   -3.3368 H         1 UNK         0.0809 
     92 H92        27.6680   25.3864   -2.1649 H         1 UNK         0.0809 
     93 H93        26.0798   24.6669   -2.4259 H         1 UNK         0.0809 
     94 H94        26.6894   25.0480    0.1002 H         1 UNK         0.2990 
     95 H95        25.3879   26.0406    3.1801 H         1 UNK         0.0690 
     96 H96        23.3287   24.7954    2.4640 H         1 UNK         0.0788 
     97 H97        24.3554   23.8088    3.4907 H         1 UNK         0.0788 
     98 H98        24.3337   23.5413    1.7478 H         1 UNK         0.0788 
     99 H99        26.6801   23.6260    2.6210 H         1 UNK         0.2993 
    100 H100       29.9887   24.7853    2.0489 H         1 UNK         0.0949 
    101 H101       29.6321   25.0164    4.5244 H         1 UNK         0.0767 
    102 H102       28.7439   23.4983    4.5351 H         1 UNK         0.0767 
    103 H103       30.4576   23.5268    4.1096 H         1 UNK         0.0767 
    104 H104       29.2179   22.1644    2.4210 H         1 UNK         0.3013 
    105 H105       28.2828   28.2066    2.0322 H         1 UNK         0.3121 
    106 H106       30.4017   29.0321    3.4891 H         1 UNK         0.0774 
    107 H107       28.9091   27.4046    4.4040 H         1 UNK         0.0815 
    108 H108       28.8184   28.7568    5.5068 H         1 UNK         0.0815 
    109 H109       27.5242   28.4981    4.3474 H         1 UNK         0.0815 
    110 H110       27.6673   31.1314    2.7471 H         1 UNK         0.2987 
    111 H111       28.1802   33.1885    4.6588 H         1 UNK         0.0949 
    112 H112       26.8595   33.3297    1.8912 H         1 UNK         0.0806 
    113 H113       26.0349   32.9996    3.4162 H         1 UNK         0.0806 
    114 H114       26.7612   34.5718    3.1315 H         1 UNK         0.0806 
    115 H115       29.7952   32.3717    1.6524 H         1 UNK         0.3010 
    116 H116       31.3905   34.9024    1.6854 H         1 UNK         0.0829 
    117 H117       31.0629   32.7700   -0.4965 H         1 UNK         0.0813 
    118 H118       30.3192   34.3677   -0.4928 H         1 UNK         0.0813 
    119 H119       32.0648   34.2112   -0.6066 H         1 UNK         0.0813 
    120 H120       31.6110   31.3118    1.6083 H         1 UNK         0.3038 
    121 H121       34.4658   31.2323    1.7329 H         1 UNK         0.0769 
    122 H122       32.3616   29.0732    2.2674 H         1 UNK         0.0811 
    123 H123       34.0832   28.7717    2.0855 H         1 UNK         0.0811 
    124 H124       33.1626   29.4123    0.7365 H         1 UNK         0.0811 
    125 H125       32.0728   31.4606    4.2892 H         1 UNK         0.3204 
    126 H126       32.1387   31.7130    6.4492 H         1 UNK         0.0748 
    127 H127       34.1197   32.5280    7.6308 H         1 UNK         0.0771 
    128 H128       35.1835   31.9942    6.3409 H         1 UNK         0.0771 
    129 H129       34.0387   33.3058    6.0597 H         1 UNK         0.0771 
    130 H130       32.7679   28.9583    5.1112 H         1 UNK         0.2980 
    131 H131       33.8496   27.4608    7.3663 H         1 UNK         0.0545 
    132 H132       30.7625   28.7360    7.0106 H         1 UNK         0.3459 
    133 H133       29.9181   27.5060    7.9196 H         1 UNK         0.3459 
    134 H134       33.6750   25.4848    5.9399 H         1 UNK         0.0616 
    135 H135       34.5362   26.7779    5.1589 H         1 UNK         0.0616 
    136 H136       33.9877   24.5939    3.4706 H         1 UNK         0.0634 
    137 H137       34.3901   26.0911    2.6577 H         1 UNK         0.0634 
@<TRIPOS>BOND
     1    1    2 1    
     2    1   72 1    
     3    1   73 1    
     4    1   74 1    
     5    2    3 2    
     6    2    4 am   BACKBONE|DICT|INTERRES
     7    4    5 1    
     8    4   75 1    
     9    5    6 1    
    10    5   35 1    
    11    5   76 1    
    12    6    7 1    
    13    6   77 1    
    14    6   78 1    
    15    7    8 1    
    16    8    9 1    
    17    8   79 1    
    18    8   80 1    
    19    9   10 ar   
    20    9   14 ar   
    21   10   11 ar   
    22   10   81 1    
    23   11   12 ar   
    24   11   71 1    
    25   12   13 ar   
    26   12   82 1    
    27   13   14 ar   
    28   13   15 1    
    29   14   83 1    
    30   15   16 1    
    31   15   84 1    
    32   15   85 1    
    33   16   17 1    
    34   17   18 1    
    35   17   86 1    
    36   17   87 1    
    37   18   19 1    
    38   18   37 1    
    39   18   88 1    
    40   19   20 am   BACKBONE|DICT|INTERRES
    41   19   89 1    
    42   20   21 2    
    43   20   22 1    
    44   22   23 1    
    45   22   24 1    
    46   22   90 1    
    47   23   91 1    
    48   23   92 1    
    49   23   93 1    
    50   24   25 am   BACKBONE|DICT|INTERRES
    51   24   94 1    
    52   25   26 2    
    53   25   27 1    
    54   27   28 1    
    55   27   29 1    
    56   27   95 1    
    57   28   96 1    
    58   28   97 1    
    59   28   98 1    
    60   29   30 am   BACKBONE|DICT|INTERRES
    61   29   99 1    
    62   30   31 2    
    63   30   32 1    
    64   32   33 1    
    65   32   34 1    
    66   32  100 1    
    67   33  101 1    
    68   33  102 1    
    69   33  103 1    
    70   34   35 am   BACKBONE|DICT|INTERRES
    71   34  104 1    
    72   35   36 2    
    73   37   38 2    
    74   37   39 am   BACKBONE|DICT|INTERRES
    75   39   40 1    
    76   39  105 1    
    77   40   41 1    
    78   40   42 1    
    79   40  106 1    
    80   41  107 1    
    81   41  108 1    
    82   41  109 1    
    83   42   43 2    
    84   42   44 am   BACKBONE|DICT|INTERRES
    85   44   45 1    
    86   44  110 1    
    87   45   46 1    
    88   45   47 1    
    89   45  111 1    
    90   46  112 1    
    91   46  113 1    
    92   46  114 1    
    93   47   48 2    
    94   47   49 am   BACKBONE|DICT|INTERRES
    95   49   50 1    
    96   49  115 1    
    97   50   51 1    
    98   50   52 1    
    99   50  116 1    
   100   51  117 1    
   101   51  118 1    
   102   51  119 1    
   103   52   53 2    
   104   52   54 am   BACKBONE|DICT|INTERRES
   105   54   55 1    
   106   54  120 1    
   107   55   56 1    
   108   55   57 1    
   109   55  121 1    
   110   56  122 1    
   111   56  123 1    
   112   56  124 1    
   113   57   58 2    
   114   57   59 am   BACKBONE|DICT|INTERRES
   115   59   60 1    
   116   59  125 1    
   117   60   61 1    
   118   60   62 1    
   119   60  126 1    
   120   61  127 1    
   121   61  128 1    
   122   61  129 1    
   123   62   63 2    
   124   62   64 am   BACKBONE|DICT|INTERRES
   125   64   65 1    
   126   64  130 1    
   127   65   66 1    
   128   65   69 1    
   129   65  131 1    
   130   66   67 am   BACKBONE|DICT|INTERRES
   131   66   68 2    
   132   67  132 1    
   133   67  133 1    
   134   69   70 1    
   135   69  134 1    
   136   69  135 1    
   137   70   71 1    
   138   71  136 1    
   139   71  137 1    
@<TRIPOS>SUBSTRUCTURE
     1 UNK         1 GROUP             0       ****    0 ROOT    
