@<TRIPOS>MOLECULE
3R136
137   139    1
SMALL
USER_CHARGES


@<TRIPOS>ATOM
      1 CA         29.2358   19.6991    0.9705 C.3       0 UNK        -0.1979 
      2 C          28.7264   20.9999    0.3660 C.2       0 UNK         0.4864 
      3 O          28.4493   21.9304    1.1194 O.2       0 UNK        -0.5359 
      4 N          28.6261   21.0363   -0.9732 N.am      1 UNK        -0.4318 
      5 CA         28.1699   22.1041   -1.8820 C.3       1 UNK         0.0824 
      6 C6         29.1809   23.2711   -2.0948 C.3       12 UNK        -0.0944 
      7 S7         29.5259   24.3532   -0.6643 S.3       12 UNK        -0.2672 
      8 C8         31.1907   23.7627   -0.2256 C.3       12 UNK         0.0333 
      9 C9         31.6889   24.3245    1.0983 C.ar      12 UNK        -0.0807 
     10 C10        32.4215   25.5149    1.1286 C.ar      12 UNK        -0.0894 
     11 C11        32.9625   25.9852    2.3294 C.ar      12 UNK        -0.0804 
     12 C12        32.7585   25.2603    3.5076 C.ar      12 UNK        -0.0824 
     13 C13        32.0058   24.0820    3.4955 C.ar      12 UNK        -0.0762 
     14 C14        31.4736   23.6192    2.2870 C.ar      12 UNK        -0.0782 
     15 C15        31.7865   23.2996    4.7840 C.3       12 UNK         0.0230 
     16 S16        30.0464   23.3206    5.3225 S.3       12 UNK        -0.2608 
     17 C17        29.7933   25.0754    5.7673 C.3       12 UNK        -0.0989 
     18 CA         29.2682   25.9293    4.5832 C.3       5 UNK         0.0716 
     19 N          28.0925   25.3319    3.9350 N.am      5 UNK        -0.4135 
     20 C          27.7137   25.5592    2.6712 C.2       4 UNK         0.5031 
     21 O          28.3139   26.3433    1.9297 O.2       4 UNK        -0.5229 
     22 CA         26.4611   24.8103    2.1728 C.3       4 UNK         0.0329 
     23 CB         25.2969   24.8430    3.1884 C.3       4 UNK        -0.2001 
     24 N          26.0266   25.2851    0.8545 N.am      4 UNK        -0.4303 
     25 C          25.5786   26.5096    0.5290 C.2       3 UNK         0.5044 
     26 O          25.3081   27.3891    1.3486 O.2       3 UNK        -0.5152 
     27 CA         25.4277   26.8301   -0.9709 C.3       3 UNK         0.0319 
     28 CB         26.5422   27.7886   -1.4231 C.3       3 UNK        -0.2001 
     29 N          25.4592   25.6411   -1.8250 N.am      3 UNK        -0.4354 
     30 C          24.4384   24.7883   -1.9844 C.2       2 UNK         0.4964 
     31 O          23.3237   24.9507   -1.4873 O.2       2 UNK        -0.5047 
     32 CA         24.7135   23.5317   -2.8286 C.3       2 UNK         0.0288 
     33 CB         24.3119   23.7694   -4.2937 C.3       2 UNK        -0.2113 
     34 N          26.1092   23.0769   -2.7754 N.am      2 UNK        -0.4145 
     35 C          26.7096   22.5761   -1.6839 C.2       1 UNK         0.5006 
     36 O          26.1392   22.4799   -0.5963 O.2       1 UNK        -0.5103 
     37 C          29.0324   27.4103    4.9632 C.2       5 UNK         0.5055 
     38 O          29.2380   27.8043    6.1118 O.2       5 UNK        -0.5220 
     39 N          28.5995   28.1996    3.9775 N.am      6 UNK        -0.4450 
     40 CA         28.3370   29.6337    4.0364 C.3       6 UNK         0.0367 
     41 CB         26.9475   29.8878    4.6536 C.3       6 UNK        -0.1929 
     42 C          28.4844   30.2588    2.6366 C.2       6 UNK         0.5070 
     43 O          27.8986   31.3103    2.3765 O.2       6 UNK        -0.5237 
     44 N          29.2527   29.6057    1.7488 N.am      7 UNK        -0.4739 
     45 CA         29.5021   30.0395    0.3690 C.3       7 UNK         0.0276 
     46 CB         30.1795   28.8912   -0.3979 C.3       7 UNK        -0.1927 
     47 C          30.3466   31.3246    0.2760 C.2       7 UNK         0.5013 
     48 O          30.2458   32.0501   -0.7141 O.2       7 UNK        -0.5193 
     49 N          31.1465   31.5829    1.3134 N.am      8 UNK        -0.4253 
     50 CA         31.9501   32.7757    1.5346 C.3       8 UNK         0.0242 
     51 CB         33.3074   32.6245    0.8234 C.3       8 UNK        -0.2000 
     52 C          32.1332   32.9229    3.0491 C.2       8 UNK         0.4948 
     53 O          31.9105   31.9583    3.7867 O.2       8 UNK        -0.5275 
     54 N          32.5888   34.1023    3.4934 N.am      9 UNK        -0.4246 
     55 CA         32.8888   34.3981    4.9028 C.3       9 UNK         0.0261 
     56 CB         33.2854   35.8767    5.0427 C.3       9 UNK        -0.1959 
     57 C          33.9739   33.4881    5.5125 C.2       9 UNK         0.5033 
     58 O          33.9407   33.2225    6.7148 O.2       9 UNK        -0.5390 
     59 N          34.8861   32.9940    4.6637 N.am      10 UNK        -0.4215 
     60 CA         35.9216   32.0160    4.9995 C.3       10 UNK         0.0240 
     61 CB         36.9053   31.9109    3.8220 C.3       10 UNK        -0.1982 
     62 C          35.3793   30.6207    5.3677 C.2       10 UNK         0.4970 
     63 O          36.1105   29.8569    5.9997 O.2       10 UNK        -0.4916 
     64 N          34.1372   30.2997    4.9751 N.am      11 UNK        -0.4279 
     65 CA         33.4798   29.0219    5.2921 C.3       11 UNK         0.1003 
     66 C          32.9934   28.9003    6.7653 C.2       11 UNK         0.5709 
     67 N          32.9514   29.9747    7.5463 N.am      11 UNK        -0.7358 
     68 O          32.6694   27.8028    7.2121 O.2       11 UNK        -0.4999 
     69 C69        32.3329   28.6840    4.3028 C.3       12 UNK        -0.0954 
     70 S70        32.8133   28.7580    2.5446 S.3       12 UNK        -0.2268 
     71 C71        33.8097   27.2492    2.3419 C.3       12 UNK         0.0203 
     72 H72        28.4855   19.2791    1.6400 H         1 UNK         0.0888 
     73 H73        29.4664   18.9537    0.2096 H         1 UNK         0.0888 
     74 H74        30.1412   19.8846    1.5478 H         1 UNK         0.0888 
     75 H75        28.8694   20.1862   -1.4619 H         1 UNK         0.3017 
     76 H76        28.1406   21.5811   -2.8397 H         1 UNK         0.0873 
     77 H77        30.1234   22.8565   -2.4558 H         1 UNK         0.0745 
     78 H78        28.8399   23.9157   -2.9066 H         1 UNK         0.0745 
     79 H79        31.8838   24.0277   -1.0255 H         1 UNK         0.0705 
     80 H80        31.1854   22.6729   -0.1784 H         1 UNK         0.0705 
     81 H81        32.5911   26.0636    0.2121 H         1 UNK         0.1334 
     82 H82        33.1863   25.6152    4.4353 H         1 UNK         0.1417 
     83 H83        30.8965   22.7041    2.2709 H         1 UNK         0.1562 
     84 H84        32.4169   23.6815    5.5886 H         1 UNK         0.0748 
     85 H85        32.0909   22.2641    4.6252 H         1 UNK         0.0748 
     86 H86        30.7300   25.4869    6.1495 H         1 UNK         0.0940 
     87 H87        29.0886   25.1090    6.6003 H         1 UNK         0.0940 
     88 H88        30.0624   25.9551    3.8362 H         1 UNK         0.0703 
     89 H89        27.5631   24.6809    4.4953 H         1 UNK         0.3081 
     90 H90        26.7561   23.7703    2.0300 H         1 UNK         0.0719 
     91 H91        25.5354   24.2729    4.0865 H         1 UNK         0.0809 
     92 H92        24.3935   24.4028    2.7659 H         1 UNK         0.0809 
     93 H93        25.0570   25.8598    3.5013 H         1 UNK         0.0809 
     94 H94        26.2114   24.6361    0.1006 H         1 UNK         0.2990 
     95 H95        24.4676   27.3336   -1.1038 H         1 UNK         0.0690 
     96 H96        26.4069   28.0971   -2.4598 H         1 UNK         0.0788 
     97 H97        27.5259   27.3264   -1.3335 H         1 UNK         0.0788 
     98 H98        26.5516   28.6938   -0.8142 H         1 UNK         0.0788 
     99 H99        26.3364   25.4313   -2.2784 H         1 UNK         0.2993 
    100 H100       24.0867   22.7315   -2.4282 H         1 UNK         0.0949 
    101 H101       23.2699   24.0848   -4.3662 H         1 UNK         0.0767 
    102 H102       24.9202   24.5458   -4.7596 H         1 UNK         0.0767 
    103 H103       24.4140   22.8600   -4.8863 H         1 UNK         0.0767 
    104 H104       26.6265   23.1197   -3.6421 H         1 UNK         0.3013 
    105 H105       28.4269   27.7503    3.0774 H         1 UNK         0.3121 
    106 H106       29.0929   30.1036    4.6691 H         1 UNK         0.0774 
    107 H107       26.7453   30.9558    4.7435 H         1 UNK         0.0815 
    108 H108       26.1554   29.4533    4.0423 H         1 UNK         0.0815 
    109 H109       26.8713   29.4624    5.6542 H         1 UNK         0.0815 
    110 H110       29.7194   28.7576    2.0377 H         1 UNK         0.2987 
    111 H111       28.5363   30.2455   -0.0974 H         1 UNK         0.0949 
    112 H112       29.6028   27.9685   -0.3295 H         1 UNK         0.0806 
    113 H113       30.2797   29.1359   -1.4560 H         1 UNK         0.0806 
    114 H114       31.1794   28.6838   -0.0158 H         1 UNK         0.0806 
    115 H115       31.1411   30.9486    2.1041 H         1 UNK         0.3010 
    116 H116       31.4178   33.6509    1.1561 H         1 UNK         0.0829 
    117 H117       33.1781   32.4909   -0.2508 H         1 UNK         0.0813 
    118 H118       33.9305   33.5083    0.9639 H         1 UNK         0.0813 
    119 H119       33.8642   31.7648    1.1999 H         1 UNK         0.0813 
    120 H120       32.7480   34.8470    2.8291 H         1 UNK         0.3038 
    121 H121       31.9728   34.2338    5.4743 H         1 UNK         0.0769 
    122 H122       34.1823   36.1118    4.4683 H         1 UNK         0.0811 
    123 H123       33.4907   36.1282    6.0843 H         1 UNK         0.0811 
    124 H124       32.4861   36.5366    4.7048 H         1 UNK         0.0811 
    125 H125       34.8305   33.2786    3.6972 H         1 UNK         0.3204 
    126 H126       36.4649   32.3914    5.8693 H         1 UNK         0.0748 
    127 H127       37.7150   31.2159    4.0495 H         1 UNK         0.0771 
    128 H128       36.4139   31.5523    2.9163 H         1 UNK         0.0771 
    129 H129       37.3633   32.8747    3.5985 H         1 UNK         0.0771 
    130 H130       33.5640   30.9757    4.4828 H         1 UNK         0.2980 
    131 H131       34.2327   28.2406    5.1797 H         1 UNK         0.0545 
    132 H132       33.2273   30.8796    7.1937 H         1 UNK         0.3459 
    133 H133       32.6413   29.8776    8.4999 H         1 UNK         0.3459 
    134 H134       31.5046   29.3792    4.4446 H         1 UNK         0.0616 
    135 H135       31.9278   27.6945    4.5102 H         1 UNK         0.0616 
    136 H136       34.5676   27.1959    3.1239 H         1 UNK         0.0634 
    137 H137       34.3587   27.3268    1.4024 H         1 UNK         0.0634 
@<TRIPOS>BOND
     1    1    2 1    
     2    1   72 1    
     3    1   73 1    
     4    1   74 1    
     5    2    3 2    
     6    2    4 am   BACKBONE|DICT|INTERRES
     7    4    5 1    
     8    4   75 1    
     9    5    6 1    
    10    5   35 1    
    11    5   76 1    
    12    6    7 1    
    13    6   77 1    
    14    6   78 1    
    15    7    8 1    
    16    8    9 1    
    17    8   79 1    
    18    8   80 1    
    19    9   10 ar   
    20    9   14 ar   
    21   10   11 ar   
    22   10   81 1    
    23   11   12 ar   
    24   11   71 1    
    25   12   13 ar   
    26   12   82 1    
    27   13   14 ar   
    28   13   15 1    
    29   14   83 1    
    30   15   16 1    
    31   15   84 1    
    32   15   85 1    
    33   16   17 1    
    34   17   18 1    
    35   17   86 1    
    36   17   87 1    
    37   18   19 1    
    38   18   37 1    
    39   18   88 1    
    40   19   20 am   BACKBONE|DICT|INTERRES
    41   19   89 1    
    42   20   21 2    
    43   20   22 1    
    44   22   23 1    
    45   22   24 1    
    46   22   90 1    
    47   23   91 1    
    48   23   92 1    
    49   23   93 1    
    50   24   25 am   BACKBONE|DICT|INTERRES
    51   24   94 1    
    52   25   26 2    
    53   25   27 1    
    54   27   28 1    
    55   27   29 1    
    56   27   95 1    
    57   28   96 1    
    58   28   97 1    
    59   28   98 1    
    60   29   30 am   BACKBONE|DICT|INTERRES
    61   29   99 1    
    62   30   31 2    
    63   30   32 1    
    64   32   33 1    
    65   32   34 1    
    66   32  100 1    
    67   33  101 1    
    68   33  102 1    
    69   33  103 1    
    70   34   35 am   BACKBONE|DICT|INTERRES
    71   34  104 1    
    72   35   36 2    
    73   37   38 2    
    74   37   39 am   BACKBONE|DICT|INTERRES
    75   39   40 1    
    76   39  105 1    
    77   40   41 1    
    78   40   42 1    
    79   40  106 1    
    80   41  107 1    
    81   41  108 1    
    82   41  109 1    
    83   42   43 2    
    84   42   44 am   BACKBONE|DICT|INTERRES
    85   44   45 1    
    86   44  110 1    
    87   45   46 1    
    88   45   47 1    
    89   45  111 1    
    90   46  112 1    
    91   46  113 1    
    92   46  114 1    
    93   47   48 2    
    94   47   49 am   BACKBONE|DICT|INTERRES
    95   49   50 1    
    96   49  115 1    
    97   50   51 1    
    98   50   52 1    
    99   50  116 1    
   100   51  117 1    
   101   51  118 1    
   102   51  119 1    
   103   52   53 2    
   104   52   54 am   BACKBONE|DICT|INTERRES
   105   54   55 1    
   106   54  120 1    
   107   55   56 1    
   108   55   57 1    
   109   55  121 1    
   110   56  122 1    
   111   56  123 1    
   112   56  124 1    
   113   57   58 2    
   114   57   59 am   BACKBONE|DICT|INTERRES
   115   59   60 1    
   116   59  125 1    
   117   60   61 1    
   118   60   62 1    
   119   60  126 1    
   120   61  127 1    
   121   61  128 1    
   122   61  129 1    
   123   62   63 2    
   124   62   64 am   BACKBONE|DICT|INTERRES
   125   64   65 1    
   126   64  130 1    
   127   65   66 1    
   128   65   69 1    
   129   65  131 1    
   130   66   67 am   BACKBONE|DICT|INTERRES
   131   66   68 2    
   132   67  132 1    
   133   67  133 1    
   134   69   70 1    
   135   69  134 1    
   136   69  135 1    
   137   70   71 1    
   138   71  136 1    
   139   71  137 1    
@<TRIPOS>SUBSTRUCTURE
     1 UNK         1 GROUP             0       ****    0 ROOT    
