@<TRIPOS>MOLECULE
3R136
137   139    1
SMALL
USER_CHARGES


@<TRIPOS>ATOM
      1 CA         26.4033   18.9142    4.5094 C.3       0 UNK        -0.1979 
      2 C          27.4170   19.3650    3.4679 C.2       0 UNK         0.4864 
      3 O          28.4219   18.6839    3.2572 O.2       0 UNK        -0.5359 
      4 N          27.1582   20.5011    2.8140 N.am      1 UNK        -0.4318 
      5 CA         27.9868   21.0931    1.7652 C.3       1 UNK         0.0824 
      6 C6         29.2727   21.7706    2.3210 C.3       12 UNK        -0.0944 
      7 S7         28.9597   23.2790    3.3070 S.3       12 UNK        -0.2672 
      8 C8         30.5267   23.4693    4.2244 C.3       12 UNK         0.0333 
      9 C9         31.7599   23.8618    3.4045 C.ar      12 UNK        -0.0807 
     10 C10        32.9909   23.9114    4.0659 C.ar      12 UNK        -0.0894 
     11 C11        34.1594   24.2664    3.3876 C.ar      12 UNK        -0.0804 
     12 C12        34.1001   24.5532    2.0218 C.ar      12 UNK        -0.0824 
     13 C13        32.8774   24.5315    1.3458 C.ar      12 UNK        -0.0762 
     14 C14        31.7127   24.1896    2.0414 C.ar      12 UNK        -0.0782 
     15 C15        32.8272   24.8718   -0.1372 C.3       12 UNK         0.0230 
     16 S16        32.5268   26.6461   -0.4186 S.3       12 UNK        -0.2608 
     17 C17        30.7070   26.6910   -0.4648 C.3       12 UNK        -0.0989 
     18 CA         30.1128   28.0812   -0.1327 C.3       5 UNK         0.0716 
     19 N          28.7394   28.1894   -0.6255 N.am      5 UNK        -0.4135 
     20 C          28.1245   29.3394   -0.9333 C.2       4 UNK         0.5031 
     21 O          28.6849   30.4353   -0.9372 O.2       4 UNK        -0.5229 
     22 CA         26.6318   29.2633   -1.3109 C.3       4 UNK         0.0329 
     23 CB         26.4633   29.2950   -2.8387 C.3       4 UNK        -0.2001 
     24 N          25.9423   28.0843   -0.7772 N.am      4 UNK        -0.4303 
     25 C          25.7043   27.8640    0.5234 C.2       3 UNK         0.5044 
     26 O          26.0233   28.6424    1.4190 O.2       3 UNK        -0.5152 
     27 CA         25.0589   26.5191    0.8954 C.3       3 UNK         0.0319 
     28 CB         23.5273   26.6170    0.8205 C.3       3 UNK        -0.2001 
     29 N          25.5221   25.3889    0.0819 N.am      3 UNK        -0.4354 
     30 C          26.7984   24.9949   -0.0268 C.2       2 UNK         0.4964 
     31 O          27.7478   25.5921    0.4871 O.2       2 UNK        -0.5047 
     32 CA         27.0666   23.7421   -0.8772 C.3       2 UNK         0.0288 
     33 CB         27.9630   24.0830   -2.0795 C.3       2 UNK        -0.2113 
     34 N          27.7064   22.6979   -0.0763 N.am      2 UNK        -0.4145 
     35 C          27.1033   22.0351    0.9208 C.2       1 UNK         0.5006 
     36 O          25.9023   22.1542    1.1891 O.2       1 UNK        -0.5103 
     37 C          30.1604   28.3946    1.3766 C.2       5 UNK         0.5055 
     38 O          31.0538   29.1157    1.8197 O.2       5 UNK        -0.5220 
     39 N          29.1822   27.8674    2.1286 N.am      6 UNK        -0.4450 
     40 CA         29.0382   28.0791    3.5685 C.3       6 UNK         0.0367 
     41 CB         28.0046   27.0911    4.1314 C.3       6 UNK        -0.1929 
     42 C          28.6625   29.5241    3.9376 C.2       6 UNK         0.5070 
     43 O          29.2831   30.0975    4.8338 O.2       6 UNK        -0.5237 
     44 N          27.6426   30.0764    3.2642 N.am      7 UNK        -0.4739 
     45 CA         27.0641   31.3972    3.5277 C.3       7 UNK         0.0276 
     46 CB         25.8626   31.6251    2.5953 C.3       7 UNK        -0.1927 
     47 C          28.0899   32.5315    3.3794 C.2       7 UNK         0.5013 
     48 O          28.5673   32.7757    2.2694 O.2       7 UNK        -0.5193 
     49 N          28.4175   33.1823    4.5055 N.am      8 UNK        -0.4253 
     50 CA         29.3646   34.2923    4.6979 C.3       8 UNK         0.0242 
     51 CB         28.9310   35.5435    3.9089 C.3       8 UNK        -0.2000 
     52 C          30.8405   33.9495    4.4176 C.2       8 UNK         0.4948 
     53 O          31.7070   34.3531    5.1937 O.2       8 UNK        -0.5275 
     54 N          31.1060   33.2236    3.3264 N.am      9 UNK        -0.4246 
     55 CA         32.4373   32.8258    2.8713 C.3       9 UNK         0.0261 
     56 CB         32.3602   32.4342    1.3868 C.3       9 UNK        -0.1959 
     57 C          33.0781   31.7003    3.7023 C.2       9 UNK         0.5033 
     58 O          34.2975   31.5380    3.6150 O.2       9 UNK        -0.5390 
     59 N          32.2769   30.9436    4.4703 N.am      10 UNK        -0.4215 
     60 CA         32.6407   29.8111    5.3360 C.3       10 UNK         0.0240 
     61 CB         33.5912   30.2404    6.4728 C.3       10 UNK        -0.1982 
     62 C          33.1779   28.5925    4.5649 C.2       10 UNK         0.4970 
     63 O          32.5487   27.5360    4.6027 O.2       10 UNK        -0.4916 
     64 N          34.3154   28.7739    3.8883 N.am      11 UNK        -0.4279 
     65 CA         34.9222   27.8351    2.9366 C.3       11 UNK         0.1003 
     66 C          35.3351   28.5183    1.6002 C.2       11 UNK         0.5709 
     67 N          35.1889   29.8284    1.4296 N.am      11 UNK        -0.7358 
     68 O          35.8042   27.8422    0.6879 O.2       11 UNK        -0.4999 
     69 C69        36.1170   27.0467    3.5473 C.3       12 UNK        -0.0954 
     70 S70        35.6772   25.9717    4.9546 S.3       12 UNK        -0.2268 
     71 C71        35.4787   24.3533    4.1404 C.3       12 UNK         0.0203 
     72 H72        26.0037   17.9353    4.2457 H         1 UNK         0.0888 
     73 H73        26.8790   18.8371    5.4867 H         1 UNK         0.0888 
     74 H74        25.5687   19.6102    4.5930 H         1 UNK         0.0888 
     75 H75        26.2937   21.0056    2.9705 H         1 UNK         0.3017 
     76 H76        28.2905   20.2862    1.0945 H         1 UNK         0.0873 
     77 H77        29.8264   21.0612    2.9377 H         1 UNK         0.0745 
     78 H78        29.9461   22.0177    1.5005 H         1 UNK         0.0745 
     79 H79        30.7296   22.5397    4.7584 H         1 UNK         0.0705 
     80 H80        30.3716   24.2338    4.9870 H         1 UNK         0.0705 
     81 H81        33.0393   23.6876    5.1231 H         1 UNK         0.1334 
     82 H82        35.0015   24.8280    1.4907 H         1 UNK         0.1417 
     83 H83        30.7725   24.1831    1.5127 H         1 UNK         0.1562 
     84 H84        32.0645   24.2766   -0.6419 H         1 UNK         0.0748 
     85 H85        33.7746   24.6039   -0.6074 H         1 UNK         0.0748 
     86 H86        30.2970   25.9269    0.1940 H         1 UNK         0.0940 
     87 H87        30.4174   26.3989   -1.4754 H         1 UNK         0.0940 
     88 H88        30.7135   28.8360   -0.6460 H         1 UNK         0.0703 
     89 H89        28.1943   27.3367   -0.6028 H         1 UNK         0.3081 
     90 H90        26.1480   30.1498   -0.8947 H         1 UNK         0.0719 
     91 H91        26.9403   30.1786   -3.2655 H         1 UNK         0.0809 
     92 H92        26.9120   28.4216   -3.3136 H         1 UNK         0.0809 
     93 H93        25.4111   29.3299   -3.1220 H         1 UNK         0.0809 
     94 H94        25.6451   27.3858   -1.4431 H         1 UNK         0.2990 
     95 H95        25.3343   26.3043    1.9301 H         1 UNK         0.0690 
     96 H96        23.1589   27.4405    1.4344 H         1 UNK         0.0788 
     97 H97        23.0530   25.7063    1.1869 H         1 UNK         0.0788 
     98 H98        23.1812   26.7903   -0.1992 H         1 UNK         0.0788 
     99 H99        24.8055   24.8373   -0.3682 H         1 UNK         0.2993 
    100 H100       26.1184   23.3534   -1.2554 H         1 UNK         0.0949 
    101 H101       28.1009   23.2172   -2.7275 H         1 UNK         0.0767 
    102 H102       27.5205   24.8737   -2.6871 H         1 UNK         0.0767 
    103 H103       28.9496   24.4250   -1.7656 H         1 UNK         0.0767 
    104 H104       28.6953   22.5636   -0.2234 H         1 UNK         0.3013 
    105 H105       28.5014   27.2628    1.6847 H         1 UNK         0.3121 
    106 H106       30.0000   27.8586    4.0338 H         1 UNK         0.0774 
    107 H107       27.0201   27.2332    3.6846 H         1 UNK         0.0815 
    108 H108       28.3072   26.0606    3.9523 H         1 UNK         0.0815 
    109 H109       27.8959   27.2132    5.2098 H         1 UNK         0.0815 
    110 H110       27.1797   29.5246    2.5440 H         1 UNK         0.2987 
    111 H111       26.6927   31.3905    4.5545 H         1 UNK         0.0949 
    112 H112       25.4201   32.6088    2.7574 H         1 UNK         0.0806 
    113 H113       26.1525   31.5648    1.5451 H         1 UNK         0.0806 
    114 H114       25.0805   30.8856    2.7683 H         1 UNK         0.0806 
    115 H115       27.9979   32.8458    5.3617 H         1 UNK         0.3010 
    116 H116       29.3054   34.5426    5.7586 H         1 UNK         0.0829 
    117 H117       28.9682   35.3816    2.8312 H         1 UNK         0.0813 
    118 H118       27.9155   35.8432    4.1678 H         1 UNK         0.0813 
    119 H119       29.5844   36.3884    4.1309 H         1 UNK         0.0813 
    120 H120       30.3124   32.9530    2.7472 H         1 UNK         0.3038 
    121 H121       33.0943   33.6941    2.9552 H         1 UNK         0.0769 
    122 H122       31.6773   31.6001    1.2244 H         1 UNK         0.0811 
    123 H123       33.3375   32.1365    1.0053 H         1 UNK         0.0811 
    124 H124       32.0166   33.2686    0.7752 H         1 UNK         0.0811 
    125 H125       31.2799   31.1152    4.4124 H         1 UNK         0.3204 
    126 H126       31.7094   29.4919    5.8058 H         1 UNK         0.0748 
    127 H127       33.7970   29.4036    7.1415 H         1 UNK         0.0771 
    128 H128       34.5509   30.5989    6.1000 H         1 UNK         0.0771 
    129 H129       33.1503   31.0354    7.0743 H         1 UNK         0.0771 
    130 H130       34.7034   29.7118    3.8952 H         1 UNK         0.2980 
    131 H131       34.1513   27.1249    2.6414 H         1 UNK         0.0545 
    132 H132       34.8266   30.4268    2.1633 H         1 UNK         0.3459 
    133 H133       35.4681   30.2319    0.5501 H         1 UNK         0.3459 
    134 H134       36.8820   27.7450    3.8906 H         1 UNK         0.0616 
    135 H135       36.6017   26.4282    2.7902 H         1 UNK         0.0616 
    136 H136       36.3208   24.1638    3.4732 H         1 UNK         0.0634 
    137 H137       35.5155   23.5734    4.9024 H         1 UNK         0.0634 
@<TRIPOS>BOND
     1    1    2 1    
     2    1   72 1    
     3    1   73 1    
     4    1   74 1    
     5    2    3 2    
     6    2    4 am   BACKBONE|DICT|INTERRES
     7    4    5 1    
     8    4   75 1    
     9    5    6 1    
    10    5   35 1    
    11    5   76 1    
    12    6    7 1    
    13    6   77 1    
    14    6   78 1    
    15    7    8 1    
    16    8    9 1    
    17    8   79 1    
    18    8   80 1    
    19    9   10 ar   
    20    9   14 ar   
    21   10   11 ar   
    22   10   81 1    
    23   11   12 ar   
    24   11   71 1    
    25   12   13 ar   
    26   12   82 1    
    27   13   14 ar   
    28   13   15 1    
    29   14   83 1    
    30   15   16 1    
    31   15   84 1    
    32   15   85 1    
    33   16   17 1    
    34   17   18 1    
    35   17   86 1    
    36   17   87 1    
    37   18   19 1    
    38   18   37 1    
    39   18   88 1    
    40   19   20 am   BACKBONE|DICT|INTERRES
    41   19   89 1    
    42   20   21 2    
    43   20   22 1    
    44   22   23 1    
    45   22   24 1    
    46   22   90 1    
    47   23   91 1    
    48   23   92 1    
    49   23   93 1    
    50   24   25 am   BACKBONE|DICT|INTERRES
    51   24   94 1    
    52   25   26 2    
    53   25   27 1    
    54   27   28 1    
    55   27   29 1    
    56   27   95 1    
    57   28   96 1    
    58   28   97 1    
    59   28   98 1    
    60   29   30 am   BACKBONE|DICT|INTERRES
    61   29   99 1    
    62   30   31 2    
    63   30   32 1    
    64   32   33 1    
    65   32   34 1    
    66   32  100 1    
    67   33  101 1    
    68   33  102 1    
    69   33  103 1    
    70   34   35 am   BACKBONE|DICT|INTERRES
    71   34  104 1    
    72   35   36 2    
    73   37   38 2    
    74   37   39 am   BACKBONE|DICT|INTERRES
    75   39   40 1    
    76   39  105 1    
    77   40   41 1    
    78   40   42 1    
    79   40  106 1    
    80   41  107 1    
    81   41  108 1    
    82   41  109 1    
    83   42   43 2    
    84   42   44 am   BACKBONE|DICT|INTERRES
    85   44   45 1    
    86   44  110 1    
    87   45   46 1    
    88   45   47 1    
    89   45  111 1    
    90   46  112 1    
    91   46  113 1    
    92   46  114 1    
    93   47   48 2    
    94   47   49 am   BACKBONE|DICT|INTERRES
    95   49   50 1    
    96   49  115 1    
    97   50   51 1    
    98   50   52 1    
    99   50  116 1    
   100   51  117 1    
   101   51  118 1    
   102   51  119 1    
   103   52   53 2    
   104   52   54 am   BACKBONE|DICT|INTERRES
   105   54   55 1    
   106   54  120 1    
   107   55   56 1    
   108   55   57 1    
   109   55  121 1    
   110   56  122 1    
   111   56  123 1    
   112   56  124 1    
   113   57   58 2    
   114   57   59 am   BACKBONE|DICT|INTERRES
   115   59   60 1    
   116   59  125 1    
   117   60   61 1    
   118   60   62 1    
   119   60  126 1    
   120   61  127 1    
   121   61  128 1    
   122   61  129 1    
   123   62   63 2    
   124   62   64 am   BACKBONE|DICT|INTERRES
   125   64   65 1    
   126   64  130 1    
   127   65   66 1    
   128   65   69 1    
   129   65  131 1    
   130   66   67 am   BACKBONE|DICT|INTERRES
   131   66   68 2    
   132   67  132 1    
   133   67  133 1    
   134   69   70 1    
   135   69  134 1    
   136   69  135 1    
   137   70   71 1    
   138   71  136 1    
   139   71  137 1    
@<TRIPOS>SUBSTRUCTURE
     1 UNK         1 GROUP             0       ****    0 ROOT    
