@<TRIPOS>MOLECULE
3R136
137   139    1
SMALL
USER_CHARGES


@<TRIPOS>ATOM
      1 CA         30.5341   22.0849    4.1663 C.3       0 UNK        -0.1979 
      2 C          30.1391   21.5768    2.7892 C.2       0 UNK         0.4864 
      3 O          29.5694   20.4913    2.6713 O.2       0 UNK        -0.5359 
      4 N          30.4305   22.3627    1.7449 N.am      1 UNK        -0.4318 
      5 CA         30.1426   22.0375    0.3399 C.3       1 UNK         0.0824 
      6 C6         31.0259   22.8472   -0.6476 C.3       12 UNK        -0.0944 
      7 S7         32.8165   22.7000   -0.3207 S.3       12 UNK        -0.2672 
      8 C8         33.2590   24.4108    0.1231 C.3       12 UNK         0.0333 
      9 C9         32.7118   24.7930    1.4894 C.ar      12 UNK        -0.0807 
     10 C10        33.4228   24.4652    2.6469 C.ar      12 UNK        -0.0894 
     11 C11        32.9293   24.7955    3.9131 C.ar      12 UNK        -0.0804 
     12 C12        31.6899   25.4429    4.0057 C.ar      12 UNK        -0.0824 
     13 C13        30.9848   25.8010    2.8549 C.ar      12 UNK        -0.0762 
     14 C14        31.4997   25.4777    1.5989 C.ar      12 UNK        -0.0782 
     15 C15        29.7000   26.5999    2.9654 C.3       12 UNK         0.0230 
     16 S16        28.2273   25.5366    2.9328 S.3       12 UNK        -0.2608 
     17 C17        26.8480   26.7024    3.2518 C.3       12 UNK        -0.0989 
     18 CA         27.0488   28.1569    2.7472 C.3       5 UNK         0.0716 
     19 N          27.2443   28.2207    1.2897 N.am      5 UNK        -0.4135 
     20 C          27.7525   29.2777    0.6371 C.2       4 UNK         0.5031 
     21 O          28.0480   30.3264    1.2087 O.2       4 UNK        -0.5229 
     22 CA         27.9023   29.2135   -0.8971 C.3       4 UNK         0.0329 
     23 CB         29.3424   29.5466   -1.3401 C.3       4 UNK        -0.2001 
     24 N          27.4173   27.9785   -1.5309 N.am      4 UNK        -0.4303 
     25 C          27.9336   26.7465   -1.4331 C.2       3 UNK         0.5044 
     26 O          28.9376   26.4596   -0.7788 O.2       3 UNK        -0.5152 
     27 CA         27.1755   25.6367   -2.1808 C.3       3 UNK         0.0319 
     28 CB         27.9453   25.2103   -3.4405 C.3       3 UNK        -0.2001 
     29 N          26.9812   24.4716   -1.3205 N.am      3 UNK        -0.4354 
     30 C          26.2918   24.4624   -0.1728 C.2       2 UNK         0.4964 
     31 O          25.5997   25.4059    0.2133 O.2       2 UNK        -0.5047 
     32 CA         26.4410   23.2193    0.7219 C.3       2 UNK         0.0288 
     33 CB         25.5087   22.0759    0.2754 C.3       2 UNK        -0.2113 
     34 N          27.8394   22.7830    0.8703 N.am      2 UNK        -0.4145 
     35 C          28.6527   22.2136   -0.0345 C.2       1 UNK         0.5006 
     36 O          28.2833   21.8849   -1.1635 O.2       1 UNK        -0.5103 
     37 C          25.9357   29.0965    3.2628 C.2       5 UNK         0.5055 
     38 O          25.8902   29.3669    4.4636 O.2       5 UNK        -0.5220 
     39 N          25.0897   29.6138    2.3607 N.am      6 UNK        -0.4450 
     40 CA         24.1374   30.6930    2.6345 C.3       6 UNK         0.0367 
     41 CB         23.0686   30.7036    1.5288 C.3       6 UNK        -0.1929 
     42 C          24.8032   32.0815    2.7519 C.2       6 UNK         0.5070 
     43 O          24.1576   33.0066    3.2463 O.2       6 UNK        -0.5237 
     44 N          26.0531   32.2161    2.2867 N.am      7 UNK        -0.4739 
     45 CA         26.8464   33.4419    2.3108 C.3       7 UNK         0.0276 
     46 CB         27.1691   33.8554    0.8593 C.3       7 UNK        -0.1927 
     47 C          28.0874   33.1988    3.1852 C.2       7 UNK         0.5013 
     48 O          27.9597   33.1780    4.4105 O.2       7 UNK        -0.5193 
     49 N          29.2544   33.0163    2.5591 N.am      8 UNK        -0.4253 
     50 CA         30.5311   32.7021    3.1915 C.3       8 UNK         0.0242 
     51 CB         31.2658   34.0010    3.5675 C.3       8 UNK        -0.2000 
     52 C          31.3514   31.8615    2.2070 C.2       8 UNK         0.4948 
     53 O          31.1515   31.9783    0.9944 O.2       8 UNK        -0.5275 
     54 N          32.2604   31.0405    2.7411 N.am      9 UNK        -0.4246 
     55 CA         33.0891   30.0928    1.9988 C.3       9 UNK         0.0261 
     56 CB         32.2372   28.8797    1.5751 C.3       9 UNK        -0.1959 
     57 C          34.2912   29.6868    2.8672 C.2       9 UNK         0.5033 
     58 O          34.5631   30.3418    3.8774 O.2       9 UNK        -0.5390 
     59 N          34.9774   28.6043    2.4712 N.am      10 UNK        -0.4215 
     60 CA         36.2016   28.0631    3.0799 C.3       10 UNK         0.0240 
     61 CB         36.6416   26.8195    2.2894 C.3       10 UNK        -0.1982 
     62 C          36.1234   27.7355    4.5846 C.2       10 UNK         0.4970 
     63 O          37.1639   27.7248    5.2439 O.2       10 UNK        -0.4916 
     64 N          34.9133   27.4918    5.1035 N.am      11 UNK        -0.4279 
     65 CA         34.6323   27.3573    6.5419 C.3       11 UNK         0.1003 
     66 C          34.8115   28.6808    7.3489 C.2       11 UNK         0.5709 
     67 N          34.8646   29.8527    6.7251 N.am      11 UNK        -0.7358 
     68 O          34.9111   28.6386    8.5730 O.2       11 UNK        -0.4999 
     69 C69        33.2215   26.7512    6.7836 C.3       12 UNK        -0.0954 
     70 S70        33.1471   24.9233    6.7711 S.3       12 UNK        -0.2268 
     71 C71        33.7770   24.4180    5.1306 C.3       12 UNK         0.0203 
     72 H72        30.2004   21.3983    4.9439 H         1 UNK         0.0888 
     73 H73        30.0834   23.0580    4.3601 H         1 UNK         0.0888 
     74 H74        31.6168   22.1803    4.2411 H         1 UNK         0.0888 
     75 H75        30.9256   23.2324    1.8988 H         1 UNK         0.3017 
     76 H76        30.3720   20.9799    0.1927 H         1 UNK         0.0873 
     77 H77        30.8639   22.4947   -1.6682 H         1 UNK         0.0745 
     78 H78        30.7343   23.8984   -0.6557 H         1 UNK         0.0745 
     79 H79        34.3461   24.5038    0.1252 H         1 UNK         0.0705 
     80 H80        32.8977   25.0966   -0.6451 H         1 UNK         0.0705 
     81 H81        34.3670   23.9442    2.5600 H         1 UNK         0.1334 
     82 H82        31.2626   25.6858    4.9667 H         1 UNK         0.1417 
     83 H83        30.9549   25.7662    0.7098 H         1 UNK         0.1562 
     84 H84        29.6581   27.3097    2.1391 H         1 UNK         0.0748 
     85 H85        29.7068   27.1852    3.8861 H         1 UNK         0.0748 
     86 H86        26.6859   26.7021    4.3318 H         1 UNK         0.0940 
     87 H87        25.9407   26.2770    2.8191 H         1 UNK         0.0940 
     88 H88        27.9519   28.5561    3.2100 H         1 UNK         0.0703 
     89 H89        27.0205   27.3828    0.7695 H         1 UNK         0.3081 
     90 H90        27.2594   30.0073   -1.2803 H         1 UNK         0.0719 
     91 H91        30.0620   28.8108   -0.9819 H         1 UNK         0.0809 
     92 H92        29.4227   29.5921   -2.4260 H         1 UNK         0.0809 
     93 H93        29.6576   30.5168   -0.9527 H         1 UNK         0.0809 
     94 H94        26.5783   28.0884   -2.0847 H         1 UNK         0.2990 
     95 H95        26.1908   26.0038   -2.4776 H         1 UNK         0.0690 
     96 H96        27.4049   24.4434   -3.9959 H         1 UNK         0.0788 
     97 H97        28.9315   24.8137   -3.1942 H         1 UNK         0.0788 
     98 H98        28.0921   26.0559   -4.1139 H         1 UNK         0.0788 
     99 H99        27.5223   23.6412   -1.5391 H         1 UNK         0.2993 
    100 H100       26.1244   23.5206    1.7219 H         1 UNK         0.0949 
    101 H101       24.4660   22.3946    0.3080 H         1 UNK         0.0767 
    102 H102       25.7122   21.7504   -0.7450 H         1 UNK         0.0767 
    103 H103       25.6039   21.2094    0.9299 H         1 UNK         0.0767 
    104 H104       28.2690   23.0544    1.7442 H         1 UNK         0.3013 
    105 H105       25.1807   29.3213    1.3991 H         1 UNK         0.3121 
    106 H106       23.6422   30.4870    3.5860 H         1 UNK         0.0774 
    107 H107       23.5017   30.9103    0.5493 H         1 UNK         0.0815 
    108 H108       22.3173   31.4711    1.7201 H         1 UNK         0.0815 
    109 H109       22.5452   29.7490    1.4721 H         1 UNK         0.0815 
    110 H110       26.5477   31.3961    1.9482 H         1 UNK         0.2987 
    111 H111       26.2897   34.2571    2.7782 H         1 UNK         0.0949 
    112 H112       27.6670   33.0596    0.3032 H         1 UNK         0.0806 
    113 H113       26.2577   34.1094    0.3178 H         1 UNK         0.0806 
    114 H114       27.8114   34.7369    0.8329 H         1 UNK         0.0806 
    115 H115       29.2723   32.9471    1.5485 H         1 UNK         0.3010 
    116 H116       30.3530   32.1058    4.0893 H         1 UNK         0.0829 
    117 H117       30.6860   34.5938    4.2751 H         1 UNK         0.0813 
    118 H118       32.2271   33.7865    4.0362 H         1 UNK         0.0813 
    119 H119       31.4595   34.6207    2.6910 H         1 UNK         0.0813 
    120 H120       32.4534   31.0710    3.7347 H         1 UNK         0.3038 
    121 H121       33.4808   30.5902    1.1091 H         1 UNK         0.0769 
    122 H122       31.9267   28.3116    2.4497 H         1 UNK         0.0811 
    123 H123       32.7814   28.2069    0.9121 H         1 UNK         0.0811 
    124 H124       31.3366   29.1838    1.0425 H         1 UNK         0.0811 
    125 H125       34.6593   28.1308    1.6383 H         1 UNK         0.3204 
    126 H126       36.9731   28.8274    2.9674 H         1 UNK         0.0748 
    127 H127       37.5658   26.4038    2.6938 H         1 UNK         0.0771 
    128 H128       35.8883   26.0322    2.3252 H         1 UNK         0.0771 
    129 H129       36.8297   27.0581    1.2424 H         1 UNK         0.0771 
    130 H130       34.1135   27.5123    4.4905 H         1 UNK         0.2980 
    131 H131       35.3711   26.6677    6.9546 H         1 UNK         0.0545 
    132 H132       34.9859   30.6910    7.2699 H         1 UNK         0.3459 
    133 H133       34.7865   29.9187    5.7139 H         1 UNK         0.3459 
    134 H134       32.8425   27.0316    7.7685 H         1 UNK         0.0616 
    135 H135       32.5003   27.1678    6.0810 H         1 UNK         0.0616 
    136 H136       34.7897   24.8012    5.0054 H         1 UNK         0.0634 
    137 H137       33.8720   23.3316    5.1450 H         1 UNK         0.0634 
@<TRIPOS>BOND
     1    1    2 1    
     2    1   72 1    
     3    1   73 1    
     4    1   74 1    
     5    2    3 2    
     6    2    4 am   BACKBONE|DICT|INTERRES
     7    4    5 1    
     8    4   75 1    
     9    5    6 1    
    10    5   35 1    
    11    5   76 1    
    12    6    7 1    
    13    6   77 1    
    14    6   78 1    
    15    7    8 1    
    16    8    9 1    
    17    8   79 1    
    18    8   80 1    
    19    9   10 ar   
    20    9   14 ar   
    21   10   11 ar   
    22   10   81 1    
    23   11   12 ar   
    24   11   71 1    
    25   12   13 ar   
    26   12   82 1    
    27   13   14 ar   
    28   13   15 1    
    29   14   83 1    
    30   15   16 1    
    31   15   84 1    
    32   15   85 1    
    33   16   17 1    
    34   17   18 1    
    35   17   86 1    
    36   17   87 1    
    37   18   19 1    
    38   18   37 1    
    39   18   88 1    
    40   19   20 am   BACKBONE|DICT|INTERRES
    41   19   89 1    
    42   20   21 2    
    43   20   22 1    
    44   22   23 1    
    45   22   24 1    
    46   22   90 1    
    47   23   91 1    
    48   23   92 1    
    49   23   93 1    
    50   24   25 am   BACKBONE|DICT|INTERRES
    51   24   94 1    
    52   25   26 2    
    53   25   27 1    
    54   27   28 1    
    55   27   29 1    
    56   27   95 1    
    57   28   96 1    
    58   28   97 1    
    59   28   98 1    
    60   29   30 am   BACKBONE|DICT|INTERRES
    61   29   99 1    
    62   30   31 2    
    63   30   32 1    
    64   32   33 1    
    65   32   34 1    
    66   32  100 1    
    67   33  101 1    
    68   33  102 1    
    69   33  103 1    
    70   34   35 am   BACKBONE|DICT|INTERRES
    71   34  104 1    
    72   35   36 2    
    73   37   38 2    
    74   37   39 am   BACKBONE|DICT|INTERRES
    75   39   40 1    
    76   39  105 1    
    77   40   41 1    
    78   40   42 1    
    79   40  106 1    
    80   41  107 1    
    81   41  108 1    
    82   41  109 1    
    83   42   43 2    
    84   42   44 am   BACKBONE|DICT|INTERRES
    85   44   45 1    
    86   44  110 1    
    87   45   46 1    
    88   45   47 1    
    89   45  111 1    
    90   46  112 1    
    91   46  113 1    
    92   46  114 1    
    93   47   48 2    
    94   47   49 am   BACKBONE|DICT|INTERRES
    95   49   50 1    
    96   49  115 1    
    97   50   51 1    
    98   50   52 1    
    99   50  116 1    
   100   51  117 1    
   101   51  118 1    
   102   51  119 1    
   103   52   53 2    
   104   52   54 am   BACKBONE|DICT|INTERRES
   105   54   55 1    
   106   54  120 1    
   107   55   56 1    
   108   55   57 1    
   109   55  121 1    
   110   56  122 1    
   111   56  123 1    
   112   56  124 1    
   113   57   58 2    
   114   57   59 am   BACKBONE|DICT|INTERRES
   115   59   60 1    
   116   59  125 1    
   117   60   61 1    
   118   60   62 1    
   119   60  126 1    
   120   61  127 1    
   121   61  128 1    
   122   61  129 1    
   123   62   63 2    
   124   62   64 am   BACKBONE|DICT|INTERRES
   125   64   65 1    
   126   64  130 1    
   127   65   66 1    
   128   65   69 1    
   129   65  131 1    
   130   66   67 am   BACKBONE|DICT|INTERRES
   131   66   68 2    
   132   67  132 1    
   133   67  133 1    
   134   69   70 1    
   135   69  134 1    
   136   69  135 1    
   137   70   71 1    
   138   71  136 1    
   139   71  137 1    
@<TRIPOS>SUBSTRUCTURE
     1 UNK         1 GROUP             0       ****    0 ROOT    
