@<TRIPOS>MOLECULE
3R136
137   139    1
SMALL
USER_CHARGES


@<TRIPOS>ATOM
      1 CA         27.5891   22.4785    2.4327 C.3       0 UNK        -0.1979 
      2 C          28.1594   21.9113    1.1460 C.2       0 UNK         0.4864 
      3 O          27.3966   21.5552    0.2469 O.2       0 UNK        -0.5359 
      4 N          29.4953   21.8416    1.0451 N.am      1 UNK        -0.4318 
      5 CA         30.2445   21.2290   -0.0658 C.3       1 UNK         0.0824 
      6 C6         31.7739   21.1942    0.1906 C.3       12 UNK        -0.0944 
      7 S7         32.2200   20.4952    1.8199 S.3       12 UNK        -0.2672 
      8 C8         33.0102   21.9147    2.6496 C.3       12 UNK         0.0333 
      9 C9         32.0241   23.0443    2.9124 C.ar      12 UNK        -0.0807 
     10 C10        31.9799   24.1504    2.0597 C.ar      12 UNK        -0.0894 
     11 C11        31.0516   25.1712    2.2704 C.ar      12 UNK        -0.0804 
     12 C12        30.1697   25.0811    3.3506 C.ar      12 UNK        -0.0824 
     13 C13        30.2159   23.9962    4.2354 C.ar      12 UNK        -0.0762 
     14 C14        31.1497   22.9794    4.0022 C.ar      12 UNK        -0.0782 
     15 C15        29.2440   23.8550    5.4122 C.3       12 UNK         0.0230 
     16 S16        28.7929   25.4110    6.2564 S.3       12 UNK        -0.2608 
     17 C17        27.3659   26.0233    5.2882 C.3       12 UNK        -0.0989 
     18 CA         27.6200   27.4353    4.6939 C.3       5 UNK         0.0716 
     19 N          27.0409   27.5811    3.3484 N.am      5 UNK        -0.4135 
     20 C          27.4272   28.5023    2.4538 C.2       4 UNK         0.5031 
     21 O          28.2579   29.3738    2.7157 O.2       4 UNK        -0.5229 
     22 CA         26.7539   28.4962    1.0637 C.3       4 UNK         0.0329 
     23 CB         27.7055   29.0324   -0.0258 C.3       4 UNK        -0.2001 
     24 N          26.1656   27.2225    0.6168 N.am      4 UNK        -0.4303 
     25 C          26.7919   26.0440    0.4794 C.2       3 UNK         0.5044 
     26 O          27.8962   25.7956    0.9612 O.2       3 UNK        -0.5152 
     27 CA         26.0873   24.9441   -0.3438 C.3       3 UNK         0.0319 
     28 CB         24.8925   25.4407   -1.1896 C.3       3 UNK        -0.2001 
     29 N          27.0650   24.2269   -1.1750 N.am      3 UNK        -0.4354 
     30 C          27.8681   24.7611   -2.1139 C.2       2 UNK         0.4964 
     31 O          27.7364   25.9002   -2.5645 O.2       2 UNK        -0.5047 
     32 CA         29.0494   23.8921   -2.5816 C.3       2 UNK         0.0288 
     33 CB         30.1808   24.7104   -3.2350 C.3       2 UNK        -0.2113 
     34 N          29.5828   23.1547   -1.4381 N.am      2 UNK        -0.4145 
     35 C          29.9469   21.8669   -1.4413 C.2       1 UNK         0.5006 
     36 O          30.0230   21.1771   -2.4597 O.2       1 UNK        -0.5103 
     37 C          27.2598   28.5844    5.6657 C.2       5 UNK         0.5055 
     38 O          27.8718   28.6950    6.7283 O.2       5 UNK        -0.5220 
     39 N          26.3382   29.4723    5.2643 N.am      6 UNK        -0.4450 
     40 CA         26.1048   30.7725    5.9005 C.3       6 UNK         0.0367 
     41 CB         24.8395   31.4065    5.3004 C.3       6 UNK        -0.1929 
     42 C          27.3037   31.7377    5.7708 C.2       6 UNK         0.5070 
     43 O          27.4133   32.6638    6.5746 O.2       6 UNK        -0.5237 
     44 N          28.1796   31.5061    4.7825 N.am      7 UNK        -0.4739 
     45 CA         29.4103   32.2549    4.5388 C.3       7 UNK         0.0276 
     46 CB         29.1945   33.2114    3.3503 C.3       7 UNK        -0.1927 
     47 C          30.5705   31.2741    4.3042 C.2       7 UNK         0.5013 
     48 O          31.3602   31.4731    3.3797 O.2       7 UNK        -0.5193 
     49 N          30.6607   30.2295    5.1434 N.am      8 UNK        -0.4253 
     50 CA         31.5933   29.0940    5.0357 C.3       8 UNK         0.0242 
     51 CB         31.3845   28.1606    6.2379 C.3       8 UNK        -0.2000 
     52 C          33.0895   29.4472    4.9239 C.2       8 UNK         0.4948 
     53 O          33.8634   28.6310    4.4246 O.2       8 UNK        -0.5275 
     54 N          33.4763   30.6462    5.3802 N.am      9 UNK        -0.4246 
     55 CA         34.8229   31.2008    5.2265 C.3       9 UNK         0.0261 
     56 CB         34.9581   32.4439    6.1212 C.3       9 UNK        -0.1959 
     57 C          35.1862   31.5471    3.7683 C.2       9 UNK         0.5033 
     58 O          36.3767   31.6057    3.4555 O.2       9 UNK        -0.5390 
     59 N          34.1779   31.7823    2.9166 N.am      10 UNK        -0.4215 
     60 CA         34.3360   32.1378    1.5049 C.3       10 UNK         0.0240 
     61 CB         33.8272   33.5737    1.2902 C.3       10 UNK        -0.1982 
     62 C          33.6010   31.1683    0.5661 C.2       10 UNK         0.4970 
     63 O          34.0861   30.9448   -0.5436 O.2       10 UNK        -0.4916 
     64 N          32.4487   30.6367    1.0009 N.am      11 UNK        -0.4279 
     65 CA         31.5201   29.8085    0.2109 C.3       11 UNK         0.1003 
     66 C          30.8817   30.5642   -0.9969 C.2       11 UNK         0.5709 
     67 N          30.7453   31.8845   -0.9404 N.am      11 UNK        -0.7358 
     68 O          30.4812   29.9573   -1.9870 O.2       11 UNK        -0.4999 
     69 C69        32.1047   28.4167   -0.1702 C.3       12 UNK        -0.0954 
     70 S70        32.4542   27.3720    1.2844 S.3       12 UNK        -0.2268 
     71 C71        30.9594   26.3356    1.2931 C.3       12 UNK         0.0203 
     72 H72        27.8456   23.5322    2.5314 H         1 UNK         0.0888 
     73 H73        26.5030   22.3913    2.4467 H         1 UNK         0.0888 
     74 H74        27.9818   21.9318    3.2888 H         1 UNK         0.0888 
     75 H75        30.0676   22.1654    1.8143 H         1 UNK         0.3017 
     76 H76        29.8990   20.1949   -0.1278 H         1 UNK         0.0873 
     77 H77        32.2620   20.5813   -0.5698 H         1 UNK         0.0745 
     78 H78        32.2082   22.1885    0.0849 H         1 UNK         0.0745 
     79 H79        33.8494   22.2659    2.0468 H         1 UNK         0.0705 
     80 H80        33.4372   21.5771    3.5951 H         1 UNK         0.0705 
     81 H81        32.6569   24.2149    1.2187 H         1 UNK         0.1334 
     82 H82        29.4293   25.8504    3.4745 H         1 UNK         0.1417 
     83 H83        31.1874   22.1214    4.6604 H         1 UNK         0.1562 
     84 H84        29.6923   23.2087    6.1683 H         1 UNK         0.0748 
     85 H85        28.3382   23.3448    5.0884 H         1 UNK         0.0748 
     86 H86        26.4736   26.0086    5.9173 H         1 UNK         0.0940 
     87 H87        27.1679   25.3064    4.4900 H         1 UNK         0.0940 
     88 H88        28.6961   27.5515    4.5552 H         1 UNK         0.0703 
     89 H89        26.3432   26.9066    3.0709 H         1 UNK         0.3081 
     90 H90        25.9221   29.1974    1.1420 H         1 UNK         0.0719 
     91 H91        28.5884   28.4008   -0.1321 H         1 UNK         0.0809 
     92 H92        27.2136   29.0785   -0.9974 H         1 UNK         0.0809 
     93 H93        28.0481   30.0415    0.2064 H         1 UNK         0.0809 
     94 H94        25.2392   27.2962    0.2199 H         1 UNK         0.2990 
     95 H95        25.7082   24.2180    0.3766 H         1 UNK         0.0690 
     96 H96        25.1760   26.2417   -1.8734 H         1 UNK         0.0788 
     97 H97        24.0849   25.8117   -0.5577 H         1 UNK         0.0788 
     98 H98        24.4761   24.6307   -1.7885 H         1 UNK         0.0788 
     99 H99        27.2482   23.2724   -0.8810 H         1 UNK         0.2993 
    100 H100       28.6481   23.1959   -3.3214 H         1 UNK         0.0949 
    101 H101       30.5861   25.4540   -2.5474 H         1 UNK         0.0767 
    102 H102       31.0007   24.0669   -3.5546 H         1 UNK         0.0767 
    103 H103       29.8229   25.2400   -4.1187 H         1 UNK         0.0767 
    104 H104       29.5393   23.6345   -0.5486 H         1 UNK         0.3013 
    105 H105       25.8695   29.3072    4.3861 H         1 UNK         0.3121 
    106 H106       25.9339   30.6031    6.9659 H         1 UNK         0.0774 
    107 H107       24.6201   32.3630    5.7771 H         1 UNK         0.0815 
    108 H108       24.9489   31.5939    4.2314 H         1 UNK         0.0815 
    109 H109       23.9676   30.7682    5.4443 H         1 UNK         0.0815 
    110 H110       28.0331   30.7151    4.1600 H         1 UNK         0.2987 
    111 H111       29.6767   32.8474    5.4167 H         1 UNK         0.0949 
    112 H112       28.9668   32.6650    2.4339 H         1 UNK         0.0806 
    113 H113       28.3734   33.9021    3.5420 H         1 UNK         0.0806 
    114 H114       30.0851   33.8123    3.1619 H         1 UNK         0.0806 
    115 H115       29.9645   30.1597    5.8732 H         1 UNK         0.3010 
    116 H116       31.3246   28.5511    4.1266 H         1 UNK         0.0829 
    117 H117       31.9843   27.2545    6.1390 H         1 UNK         0.0813 
    118 H118       31.6667   28.6407    7.1756 H         1 UNK         0.0813 
    119 H119       30.3473   27.8473    6.3266 H         1 UNK         0.0813 
    120 H120       32.7779   31.2464    5.7935 H         1 UNK         0.3038 
    121 H121       35.5379   30.4509    5.5718 H         1 UNK         0.0769 
    122 H122       35.9626   32.8646    6.0545 H         1 UNK         0.0811 
    123 H123       34.7803   32.2013    7.1691 H         1 UNK         0.0811 
    124 H124       34.2573   33.2283    5.8324 H         1 UNK         0.0811 
    125 H125       33.2235   31.6919    3.2562 H         1 UNK         0.3204 
    126 H126       35.3904   32.1081    1.2222 H         1 UNK         0.0748 
    127 H127       33.9146   33.8691    0.2436 H         1 UNK         0.0771 
    128 H128       32.7794   33.6781    1.5755 H         1 UNK         0.0771 
    129 H129       34.4053   34.2877    1.8771 H         1 UNK         0.0771 
    130 H130       32.0904   30.9133    1.9129 H         1 UNK         0.2980 
    131 H131       30.6753   29.6222    0.8753 H         1 UNK         0.0545 
    132 H132       31.0523   32.3981   -0.1308 H         1 UNK         0.3459 
    133 H133       30.3270   32.3687   -1.7187 H         1 UNK         0.3459 
    134 H134       31.4187   27.8731   -0.8216 H         1 UNK         0.0616 
    135 H135       33.0248   28.5270   -0.7447 H         1 UNK         0.0616 
    136 H136       30.7770   25.9361    0.2946 H         1 UNK         0.0634 
    137 H137       30.1115   26.9780    1.5334 H         1 UNK         0.0634 
@<TRIPOS>BOND
     1    1    2 1    
     2    1   72 1    
     3    1   73 1    
     4    1   74 1    
     5    2    3 2    
     6    2    4 am   BACKBONE|DICT|INTERRES
     7    4    5 1    
     8    4   75 1    
     9    5    6 1    
    10    5   35 1    
    11    5   76 1    
    12    6    7 1    
    13    6   77 1    
    14    6   78 1    
    15    7    8 1    
    16    8    9 1    
    17    8   79 1    
    18    8   80 1    
    19    9   10 ar   
    20    9   14 ar   
    21   10   11 ar   
    22   10   81 1    
    23   11   12 ar   
    24   11   71 1    
    25   12   13 ar   
    26   12   82 1    
    27   13   14 ar   
    28   13   15 1    
    29   14   83 1    
    30   15   16 1    
    31   15   84 1    
    32   15   85 1    
    33   16   17 1    
    34   17   18 1    
    35   17   86 1    
    36   17   87 1    
    37   18   19 1    
    38   18   37 1    
    39   18   88 1    
    40   19   20 am   BACKBONE|DICT|INTERRES
    41   19   89 1    
    42   20   21 2    
    43   20   22 1    
    44   22   23 1    
    45   22   24 1    
    46   22   90 1    
    47   23   91 1    
    48   23   92 1    
    49   23   93 1    
    50   24   25 am   BACKBONE|DICT|INTERRES
    51   24   94 1    
    52   25   26 2    
    53   25   27 1    
    54   27   28 1    
    55   27   29 1    
    56   27   95 1    
    57   28   96 1    
    58   28   97 1    
    59   28   98 1    
    60   29   30 am   BACKBONE|DICT|INTERRES
    61   29   99 1    
    62   30   31 2    
    63   30   32 1    
    64   32   33 1    
    65   32   34 1    
    66   32  100 1    
    67   33  101 1    
    68   33  102 1    
    69   33  103 1    
    70   34   35 am   BACKBONE|DICT|INTERRES
    71   34  104 1    
    72   35   36 2    
    73   37   38 2    
    74   37   39 am   BACKBONE|DICT|INTERRES
    75   39   40 1    
    76   39  105 1    
    77   40   41 1    
    78   40   42 1    
    79   40  106 1    
    80   41  107 1    
    81   41  108 1    
    82   41  109 1    
    83   42   43 2    
    84   42   44 am   BACKBONE|DICT|INTERRES
    85   44   45 1    
    86   44  110 1    
    87   45   46 1    
    88   45   47 1    
    89   45  111 1    
    90   46  112 1    
    91   46  113 1    
    92   46  114 1    
    93   47   48 2    
    94   47   49 am   BACKBONE|DICT|INTERRES
    95   49   50 1    
    96   49  115 1    
    97   50   51 1    
    98   50   52 1    
    99   50  116 1    
   100   51  117 1    
   101   51  118 1    
   102   51  119 1    
   103   52   53 2    
   104   52   54 am   BACKBONE|DICT|INTERRES
   105   54   55 1    
   106   54  120 1    
   107   55   56 1    
   108   55   57 1    
   109   55  121 1    
   110   56  122 1    
   111   56  123 1    
   112   56  124 1    
   113   57   58 2    
   114   57   59 am   BACKBONE|DICT|INTERRES
   115   59   60 1    
   116   59  125 1    
   117   60   61 1    
   118   60   62 1    
   119   60  126 1    
   120   61  127 1    
   121   61  128 1    
   122   61  129 1    
   123   62   63 2    
   124   62   64 am   BACKBONE|DICT|INTERRES
   125   64   65 1    
   126   64  130 1    
   127   65   66 1    
   128   65   69 1    
   129   65  131 1    
   130   66   67 am   BACKBONE|DICT|INTERRES
   131   66   68 2    
   132   67  132 1    
   133   67  133 1    
   134   69   70 1    
   135   69  134 1    
   136   69  135 1    
   137   70   71 1    
   138   71  136 1    
   139   71  137 1    
@<TRIPOS>SUBSTRUCTURE
     1 UNK         1 GROUP             0       ****    0 ROOT    
