@<TRIPOS>MOLECULE
3R136
137   139    1
SMALL
USER_CHARGES


@<TRIPOS>ATOM
      1 CA         29.6035   20.9987    3.8576 C.3       0 UNK        -0.1979 
      2 C          29.3785   22.1801    2.9256 C.2       0 UNK         0.4864 
      3 O          29.4085   22.0081    1.7067 O.2       0 UNK        -0.5359 
      4 N          29.1585   23.3733    3.4946 N.am      1 UNK        -0.4318 
      5 CA         28.9347   24.6379    2.7791 C.3       1 UNK         0.0824 
      6 C6         28.9474   25.8666    3.7345 C.3       12 UNK        -0.0944 
      7 S7         30.2388   25.8040    5.0303 S.3       12 UNK        -0.2672 
      8 C8         31.4922   26.9676    4.4204 C.3       12 UNK         0.0333 
      9 C9         32.2466   26.4296    3.2203 C.ar      12 UNK        -0.0807 
     10 C10        33.3400   25.5816    3.4008 C.ar      12 UNK        -0.0894 
     11 C11        34.0992   25.1652    2.3034 C.ar      12 UNK        -0.0804 
     12 C12        33.7135   25.5460    1.0139 C.ar      12 UNK        -0.0824 
     13 C13        32.6040   26.3761    0.8198 C.ar      12 UNK        -0.0762 
     14 C14        31.8895   26.8304    1.9326 C.ar      12 UNK        -0.0782 
     15 C15        32.2087   26.8087   -0.5871 C.3       12 UNK         0.0230 
     16 S16        30.5340   26.2446   -1.0366 S.3       12 UNK        -0.2608 
     17 C17        29.4927   27.5911   -0.3758 C.3       12 UNK        -0.0989 
     18 CA         28.4381   28.0610   -1.4025 C.3       5 UNK         0.0716 
     19 N          27.4365   27.0274   -1.6614 N.am      5 UNK        -0.4135 
     20 C          26.7157   26.9552   -2.7867 C.2       4 UNK         0.5031 
     21 O          26.8373   27.7347   -3.7335 O.2       4 UNK        -0.5229 
     22 CA         25.6910   25.8155   -2.8807 C.3       4 UNK         0.0329 
     23 CB         26.3926   24.4700   -3.1319 C.3       4 UNK        -0.2001 
     24 N          24.8473   25.7093   -1.6914 N.am      4 UNK        -0.4303 
     25 C          23.9041   26.5913   -1.3252 C.2       3 UNK         0.5044 
     26 O          23.6500   27.6198   -1.9530 O.2       3 UNK        -0.5152 
     27 CA         23.0699   26.2539   -0.0724 C.3       3 UNK         0.0319 
     28 CB         21.6173   25.9309   -0.4625 C.3       3 UNK        -0.2001 
     29 N          23.6228   25.1168    0.6691 N.am      3 UNK        -0.4354 
     30 C          24.5626   25.2157    1.6171 C.2       2 UNK         0.4964 
     31 O          24.9259   26.2875    2.1057 O.2       2 UNK        -0.5047 
     32 CA         25.1983   23.8937    2.0991 C.3       2 UNK         0.0288 
     33 CB         25.1822   22.7726    1.0331 C.3       2 UNK        -0.2113 
     34 N          26.5633   24.0723    2.6074 N.am      2 UNK        -0.4145 
     35 C          27.6198   24.6039    1.9665 C.2       1 UNK         0.5006 
     36 O          27.5917   25.0278    0.8076 O.2       1 UNK        -0.5103 
     37 C          27.7600   29.3519   -0.9113 C.2       5 UNK         0.5055 
     38 O          26.8036   29.2903   -0.1352 O.2       5 UNK        -0.5220 
     39 N          28.3127   30.4991   -1.3290 N.am      6 UNK        -0.4450 
     40 CA         27.9838   31.8158   -0.7742 C.3       6 UNK         0.0367 
     41 CB         28.3791   32.9097   -1.7795 C.3       6 UNK        -0.1929 
     42 C          28.6738   32.0529    0.5826 C.2       6 UNK         0.5070 
     43 O          28.1346   32.7785    1.4186 O.2       6 UNK        -0.5237 
     44 N          29.8501   31.4381    0.7752 N.am      7 UNK        -0.4739 
     45 CA         30.5893   31.4155    2.0375 C.3       7 UNK         0.0276 
     46 CB         32.0296   30.9500    1.7640 C.3       7 UNK        -0.1927 
     47 C          29.9137   30.4865    3.0595 C.2       7 UNK         0.5013 
     48 O          29.3248   29.4758    2.6691 O.2       7 UNK        -0.5193 
     49 N          30.0520   30.8260    4.3441 N.am      8 UNK        -0.4253 
     50 CA         29.5644   30.0546    5.4842 C.3       8 UNK         0.0242 
     51 CB         28.3424   30.7630    6.0918 C.3       8 UNK        -0.2000 
     52 C          30.6959   29.9478    6.5123 C.2       8 UNK         0.4948 
     53 O          31.5335   30.8510    6.5878 O.2       8 UNK        -0.5275 
     54 N          30.6937   28.8540    7.2865 N.am      9 UNK        -0.4246 
     55 CA         31.6199   28.4889    8.3717 C.3       9 UNK         0.0261 
     56 CB         31.5749   29.5165    9.5201 C.3       9 UNK        -0.1959 
     57 C          33.0737   28.2093    7.9403 C.2       9 UNK         0.5033 
     58 O          33.6456   27.2168    8.3934 O.2       9 UNK        -0.5390 
     59 N          33.6419   29.0651    7.0863 N.am      10 UNK        -0.4215 
     60 CA         34.9811   28.9471    6.5124 C.3       10 UNK         0.0240 
     61 CB         35.8011   30.1859    6.9095 C.3       10 UNK        -0.1982 
     62 C          34.8762   28.8421    4.9864 C.2       10 UNK         0.4970 
     63 O          33.9083   29.3368    4.4050 O.2       10 UNK        -0.4916 
     64 N          35.8871   28.2189    4.3698 N.am      11 UNK        -0.4279 
     65 CA         35.9633   27.9820    2.9173 C.3       11 UNK         0.1003 
     66 C          36.3164   29.2345    2.0626 C.2       11 UNK         0.5709 
     67 N          36.6692   30.3699    2.6539 N.am      11 UNK        -0.7358 
     68 O          36.2648   29.1761    0.8365 O.2       11 UNK        -0.4999 
     69 C69        36.8879   26.7796    2.5623 C.3       12 UNK        -0.0954 
     70 S70        36.5782   25.2690    3.5474 S.3       12 UNK        -0.2268 
     71 C71        35.3727   24.3613    2.5202 C.3       12 UNK         0.0203 
     72 H72        28.8450   20.2355    3.6857 H         1 UNK         0.0888 
     73 H73        30.5817   20.5558    3.6717 H         1 UNK         0.0888 
     74 H74        29.5584   21.2916    4.9064 H         1 UNK         0.0888 
     75 H75        29.1927   23.4559    4.5011 H         1 UNK         0.3017 
     76 H76        29.7555   24.7530    2.0674 H         1 UNK         0.0873 
     77 H77        29.0491   26.7882    3.1593 H         1 UNK         0.0745 
     78 H78        27.9945   25.9552    4.2602 H         1 UNK         0.0745 
     79 H79        31.0318   27.9225    4.1760 H         1 UNK         0.0705 
     80 H80        32.1979   27.1705    5.2259 H         1 UNK         0.0705 
     81 H81        33.6363   25.2934    4.4002 H         1 UNK         0.1334 
     82 H82        34.2955   25.2196    0.1628 H         1 UNK         0.1417 
     83 H83        31.0540   27.5018    1.8071 H         1 UNK         0.1562 
     84 H84        32.9059   26.3959   -1.3177 H         1 UNK         0.0748 
     85 H85        32.2895   27.8925   -0.6788 H         1 UNK         0.0748 
     86 H86        30.1330   28.4269   -0.0899 H         1 UNK         0.0940 
     87 H87        29.0132   27.2552    0.5454 H         1 UNK         0.0940 
     88 H88        28.9555   28.2839   -2.3388 H         1 UNK         0.0703 
     89 H89        27.2798   26.3596   -0.9151 H         1 UNK         0.3081 
     90 H90        25.0418   26.0227   -3.7343 H         1 UNK         0.0719 
     91 H91        27.0233   24.5198   -4.0207 H         1 UNK         0.0809 
     92 H92        27.0314   24.1817   -2.2955 H         1 UNK         0.0809 
     93 H93        25.6703   23.6697   -3.2940 H         1 UNK         0.0809 
     94 H94        24.9986   24.9062   -1.1011 H         1 UNK         0.2990 
     95 H95        23.0614   27.1412    0.5644 H         1 UNK         0.0690 
     96 H96        21.0064   25.7280    0.4173 H         1 UNK         0.0788 
     97 H97        21.5577   25.0634   -1.1212 H         1 UNK         0.0788 
     98 H98        21.1576   26.7700   -0.9868 H         1 UNK         0.0788 
     99 H99        23.3455   24.1964    0.3580 H         1 UNK         0.2993 
    100 H100       24.5967   23.5611    2.9464 H         1 UNK         0.0949 
    101 H101       25.6925   23.0735    0.1172 H         1 UNK         0.0767 
    102 H102       25.6821   21.8771    1.4032 H         1 UNK         0.0767 
    103 H103       24.1664   22.4753    0.7710 H         1 UNK         0.0767 
    104 H104       26.7082   23.7775    3.5624 H         1 UNK         0.3013 
    105 H105       29.0681   30.4652   -1.9992 H         1 UNK         0.3121 
    106 H106       26.9046   31.8740   -0.6145 H         1 UNK         0.0774 
    107 H107       29.4510   32.9087   -1.9815 H         1 UNK         0.0815 
    108 H108       27.8571   32.7842   -2.7282 H         1 UNK         0.0815 
    109 H109       28.1213   33.8988   -1.3980 H         1 UNK         0.0815 
    110 H110       30.2068   30.8525    0.0372 H         1 UNK         0.2987 
    111 H111       30.6153   32.4303    2.4413 H         1 UNK         0.0949 
    112 H112       32.5278   31.5956    1.0407 H         1 UNK         0.0806 
    113 H113       32.6258   30.9721    2.6772 H         1 UNK         0.0806 
    114 H114       32.0625   29.9285    1.3831 H         1 UNK         0.0806 
    115 H115       30.6376   31.6131    4.5926 H         1 UNK         0.3010 
    116 H116       29.2706   29.0500    5.1728 H         1 UNK         0.0829 
    117 H117       28.5891   31.7672    6.4393 H         1 UNK         0.0813 
    118 H118       27.9510   30.2081    6.9454 H         1 UNK         0.0813 
    119 H119       27.5353   30.8500    5.3641 H         1 UNK         0.0813 
    120 H120       29.9699   28.1688    7.1150 H         1 UNK         0.3038 
    121 H121       31.2350   27.5481    8.7691 H         1 UNK         0.0769 
    122 H122       32.1857   29.1858   10.3611 H         1 UNK         0.0811 
    123 H123       30.5591   29.6519    9.8914 H         1 UNK         0.0811 
    124 H124       31.9521   30.4922    9.2123 H         1 UNK         0.0811 
    125 H125       33.0641   29.8251    6.7290 H         1 UNK         0.3204 
    126 H126       35.4823   28.0524    6.8879 H         1 UNK         0.0748 
    127 H127       35.3509   31.1054    6.5322 H         1 UNK         0.0771 
    128 H128       35.8809   30.2745    7.9932 H         1 UNK         0.0771 
    129 H129       36.8163   30.1308    6.5146 H         1 UNK         0.0771 
    130 H130       36.6518   27.8498    4.9151 H         1 UNK         0.2980 
    131 H131       34.9566   27.7213    2.5935 H         1 UNK         0.0545 
    132 H132       36.8915   31.1727    2.0870 H         1 UNK         0.3459 
    133 H133       36.7063   30.4330    3.6578 H         1 UNK         0.3459 
    134 H134       37.9322   27.0565    2.7163 H         1 UNK         0.0616 
    135 H135       36.7967   26.5279    1.5041 H         1 UNK         0.0616 
    136 H136       35.1225   23.4212    3.0134 H         1 UNK         0.0634 
    137 H137       35.8406   24.1001    1.5699 H         1 UNK         0.0634 
@<TRIPOS>BOND
     1    1    2 1    
     2    1   72 1    
     3    1   73 1    
     4    1   74 1    
     5    2    3 2    
     6    2    4 am   BACKBONE|DICT|INTERRES
     7    4    5 1    
     8    4   75 1    
     9    5    6 1    
    10    5   35 1    
    11    5   76 1    
    12    6    7 1    
    13    6   77 1    
    14    6   78 1    
    15    7    8 1    
    16    8    9 1    
    17    8   79 1    
    18    8   80 1    
    19    9   10 ar   
    20    9   14 ar   
    21   10   11 ar   
    22   10   81 1    
    23   11   12 ar   
    24   11   71 1    
    25   12   13 ar   
    26   12   82 1    
    27   13   14 ar   
    28   13   15 1    
    29   14   83 1    
    30   15   16 1    
    31   15   84 1    
    32   15   85 1    
    33   16   17 1    
    34   17   18 1    
    35   17   86 1    
    36   17   87 1    
    37   18   19 1    
    38   18   37 1    
    39   18   88 1    
    40   19   20 am   BACKBONE|DICT|INTERRES
    41   19   89 1    
    42   20   21 2    
    43   20   22 1    
    44   22   23 1    
    45   22   24 1    
    46   22   90 1    
    47   23   91 1    
    48   23   92 1    
    49   23   93 1    
    50   24   25 am   BACKBONE|DICT|INTERRES
    51   24   94 1    
    52   25   26 2    
    53   25   27 1    
    54   27   28 1    
    55   27   29 1    
    56   27   95 1    
    57   28   96 1    
    58   28   97 1    
    59   28   98 1    
    60   29   30 am   BACKBONE|DICT|INTERRES
    61   29   99 1    
    62   30   31 2    
    63   30   32 1    
    64   32   33 1    
    65   32   34 1    
    66   32  100 1    
    67   33  101 1    
    68   33  102 1    
    69   33  103 1    
    70   34   35 am   BACKBONE|DICT|INTERRES
    71   34  104 1    
    72   35   36 2    
    73   37   38 2    
    74   37   39 am   BACKBONE|DICT|INTERRES
    75   39   40 1    
    76   39  105 1    
    77   40   41 1    
    78   40   42 1    
    79   40  106 1    
    80   41  107 1    
    81   41  108 1    
    82   41  109 1    
    83   42   43 2    
    84   42   44 am   BACKBONE|DICT|INTERRES
    85   44   45 1    
    86   44  110 1    
    87   45   46 1    
    88   45   47 1    
    89   45  111 1    
    90   46  112 1    
    91   46  113 1    
    92   46  114 1    
    93   47   48 2    
    94   47   49 am   BACKBONE|DICT|INTERRES
    95   49   50 1    
    96   49  115 1    
    97   50   51 1    
    98   50   52 1    
    99   50  116 1    
   100   51  117 1    
   101   51  118 1    
   102   51  119 1    
   103   52   53 2    
   104   52   54 am   BACKBONE|DICT|INTERRES
   105   54   55 1    
   106   54  120 1    
   107   55   56 1    
   108   55   57 1    
   109   55  121 1    
   110   56  122 1    
   111   56  123 1    
   112   56  124 1    
   113   57   58 2    
   114   57   59 am   BACKBONE|DICT|INTERRES
   115   59   60 1    
   116   59  125 1    
   117   60   61 1    
   118   60   62 1    
   119   60  126 1    
   120   61  127 1    
   121   61  128 1    
   122   61  129 1    
   123   62   63 2    
   124   62   64 am   BACKBONE|DICT|INTERRES
   125   64   65 1    
   126   64  130 1    
   127   65   66 1    
   128   65   69 1    
   129   65  131 1    
   130   66   67 am   BACKBONE|DICT|INTERRES
   131   66   68 2    
   132   67  132 1    
   133   67  133 1    
   134   69   70 1    
   135   69  134 1    
   136   69  135 1    
   137   70   71 1    
   138   71  136 1    
   139   71  137 1    
@<TRIPOS>SUBSTRUCTURE
     1 UNK         1 GROUP             0       ****    0 ROOT    
