@<TRIPOS>MOLECULE
3R136
137   139    1
SMALL
USER_CHARGES


@<TRIPOS>ATOM
      1 CA         26.3705   25.5367    4.7901 C.3       0 UNK        -0.1979 
      2 C          26.9891   25.0170    3.5014 C.2       0 UNK         0.4864 
      3 O          27.5497   25.8075    2.7425 O.2       0 UNK        -0.5359 
      4 N          26.8976   23.7021    3.2571 N.am      1 UNK        -0.4318 
      5 CA         27.3661   22.9920    2.0545 C.3       1 UNK         0.0824 
      6 C6         28.8861   23.1728    1.7651 C.3       12 UNK        -0.0944 
      7 S7         29.9455   22.6779    3.1657 S.3       12 UNK        -0.2672 
      8 C8         31.5032   22.2381    2.3286 C.3       12 UNK         0.0333 
      9 C9         32.2360   23.4486    1.7591 C.ar      12 UNK        -0.0807 
     10 C10        33.2521   24.0751    2.4915 C.ar      12 UNK        -0.0894 
     11 C11        33.9777   25.1354    1.9363 C.ar      12 UNK        -0.0804 
     12 C12        33.6605   25.5866    0.6507 C.ar      12 UNK        -0.0824 
     13 C13        32.6468   24.9717   -0.0901 C.ar      12 UNK        -0.0762 
     14 C14        31.9428   23.9012    0.4688 C.ar      12 UNK        -0.0782 
     15 C15        32.3576   25.4178   -1.5185 C.3       12 UNK         0.0230 
     16 S16        31.5094   27.0266   -1.6045 S.3       12 UNK        -0.2608 
     17 C17        29.8729   26.6300   -0.8999 C.3       12 UNK        -0.0989 
     18 CA         29.2975   27.7700   -0.0250 C.3       5 UNK         0.0716 
     19 N          27.8883   27.5353    0.2854 N.am      5 UNK        -0.4135 
     20 C          27.0529   28.4056    0.8688 C.2       4 UNK         0.5031 
     21 O          27.3961   29.5230    1.2566 O.2       4 UNK        -0.5229 
     22 CA         25.5962   27.9361    1.0694 C.3       4 UNK         0.0329 
     23 CB         24.5880   29.1049    1.0853 C.3       4 UNK        -0.2001 
     24 N          25.1957   26.8854    0.1208 N.am      4 UNK        -0.4303 
     25 C          25.0564   26.9971   -1.2083 C.2       3 UNK         0.5044 
     26 O          25.1827   28.0468   -1.8406 O.2       3 UNK        -0.5152 
     27 CA         24.8398   25.6826   -1.9657 C.3       3 UNK         0.0319 
     28 CB         23.8919   25.8471   -3.1668 C.3       3 UNK        -0.2001 
     29 N          26.1582   25.2668   -2.4426 N.am      3 UNK        -0.4354 
     30 C          26.8210   24.1181   -2.2504 C.2       2 UNK         0.4964 
     31 O          28.0009   24.0128   -2.5832 O.2       2 UNK        -0.5047 
     32 CA         26.1454   22.8911   -1.6010 C.3       2 UNK         0.0288 
     33 CB         26.3080   21.6446   -2.4894 C.3       2 UNK        -0.2113 
     34 N          26.7601   22.6278   -0.2995 N.am      2 UNK        -0.4145 
     35 C          26.5048   23.3287    0.8131 C.2       1 UNK         0.5006 
     36 O          25.6259   24.1937    0.8693 O.2       1 UNK        -0.5103 
     37 C          30.1411   28.0276    1.2391 C.2       5 UNK         0.5055 
     38 O          30.8884   29.0059    1.2691 O.2       5 UNK        -0.5220 
     39 N          29.9763   27.1908    2.2744 N.am      6 UNK        -0.4450 
     40 CA         30.6961   27.3315    3.5417 C.3       6 UNK         0.0367 
     41 CB         30.5515   26.0619    4.3918 C.3       6 UNK        -0.1929 
     42 C          30.2464   28.5602    4.3380 C.2       6 UNK         0.5070 
     43 O          31.0744   29.1669    5.0146 O.2       6 UNK        -0.5237 
     44 N          28.9610   28.9209    4.2244 N.am      7 UNK        -0.4739 
     45 CA         28.3957   30.1334    4.8155 C.3       7 UNK         0.0276 
     46 CB         26.8607   30.0705    4.7647 C.3       7 UNK        -0.1927 
     47 C          28.9270   31.4049    4.1329 C.2       7 UNK         0.5013 
     48 O          29.3065   32.3469    4.8285 O.2       7 UNK        -0.5193 
     49 N          28.9718   31.3968    2.7926 N.am      8 UNK        -0.4253 
     50 CA         29.4950   32.4876    1.9680 C.3       8 UNK         0.0242 
     51 CB         29.1319   32.2406    0.4945 C.3       8 UNK        -0.2000 
     52 C          31.0106   32.6896    2.1283 C.2       8 UNK         0.4948 
     53 O          31.4523   33.8274    2.2937 O.2       8 UNK        -0.5275 
     54 N          31.7784   31.5921    2.0792 N.am      9 UNK        -0.4246 
     55 CA         33.2394   31.6023    2.2023 C.3       9 UNK         0.0261 
     56 CB         33.8042   30.3367    1.5386 C.3       9 UNK        -0.1959 
     57 C          33.7441   31.7270    3.6524 C.2       9 UNK         0.5033 
     58 O          34.9287   32.0094    3.8397 O.2       9 UNK        -0.5390 
     59 N          32.8592   31.5112    4.6381 N.am      10 UNK        -0.4215 
     60 CA         33.1181   31.4757    6.0833 C.3       10 UNK         0.0240 
     61 CB         33.5582   32.8595    6.6083 C.3       10 UNK        -0.1982 
     62 C          34.0813   30.3356    6.4700 C.2       10 UNK         0.4970 
     63 O          35.0477   30.5579    7.2028 O.2       10 UNK        -0.4916 
     64 N          33.8003   29.1354    5.9495 N.am      11 UNK        -0.4279 
     65 CA         34.5547   27.9027    6.2163 C.3       11 UNK         0.1003 
     66 C          34.3081   27.3674    7.6527 C.2       11 UNK         0.5709 
     67 N          35.2990   26.7191    8.2499 N.am      11 UNK        -0.7358 
     68 O          33.2216   27.4982    8.2144 O.2       11 UNK        -0.4999 
     69 C69        34.2584   26.8066    5.1591 C.3       12 UNK        -0.0954 
     70 S70        34.7370   27.3270    3.4791 S.3       12 UNK        -0.2268 
     71 C71        35.1574   25.7472    2.6814 C.3       12 UNK         0.0203 
     72 H72        27.1181   26.0688    5.3776 H         1 UNK         0.0888 
     73 H73        25.5615   26.2297    4.5614 H         1 UNK         0.0888 
     74 H74        25.9670   24.7310    5.4029 H         1 UNK         0.0888 
     75 H75        26.4105   23.1210    3.9241 H         1 UNK         0.3017 
     76 H76        27.1919   21.9340    2.2569 H         1 UNK         0.0873 
     77 H77        29.1210   24.2051    1.5044 H         1 UNK         0.0745 
     78 H78        29.1784   22.5703    0.9045 H         1 UNK         0.0745 
     79 H79        32.1453   21.7247    3.0460 H         1 UNK         0.0705 
     80 H80        31.3015   21.5130    1.5388 H         1 UNK         0.0705 
     81 H81        33.4997   23.7164    3.4812 H         1 UNK         0.1334 
     82 H82        34.2215   26.4021    0.2145 H         1 UNK         0.1417 
     83 H83        31.1786   23.4043   -0.1123 H         1 UNK         0.1562 
     84 H84        31.7603   24.6725   -2.0465 H         1 UNK         0.0748 
     85 H85        33.2990   25.4912   -2.0648 H         1 UNK         0.0748 
     86 H86        29.9173   25.6992   -0.3340 H         1 UNK         0.0940 
     87 H87        29.2053   26.4342   -1.7403 H         1 UNK         0.0940 
     88 H88        29.3276   28.6876   -0.6168 H         1 UNK         0.0703 
     89 H89        27.5234   26.6195    0.0741 H         1 UNK         0.3081 
     90 H90        25.5656   27.4736    2.0562 H         1 UNK         0.0719 
     91 H91        24.6226   29.6848    0.1628 H         1 UNK         0.0809 
     92 H92        23.5674   28.7475    1.2210 H         1 UNK         0.0809 
     93 H93        24.8003   29.7930    1.9040 H         1 UNK         0.0809 
     94 H94        25.1562   25.9451    0.5143 H         1 UNK         0.2990 
     95 H95        24.3858   24.9781   -1.2725 H         1 UNK         0.0690 
     96 H96        22.9181   26.2191   -2.8459 H         1 UNK         0.0788 
     97 H97        23.7263   24.8948   -3.6708 H         1 UNK         0.0788 
     98 H98        24.2836   26.5495   -3.9039 H         1 UNK         0.0788 
     99 H99        26.6716   26.0154   -2.8871 H         1 UNK         0.2993 
    100 H100       25.0747   23.0350   -1.4721 H         1 UNK         0.0949 
    101 H101       27.3563   21.3872   -2.6482 H         1 UNK         0.0767 
    102 H102       25.8146   20.7777   -2.0493 H         1 UNK         0.0767 
    103 H103       25.8603   21.8071   -3.4709 H         1 UNK         0.0767 
    104 H104       27.4951   21.9359   -0.2878 H         1 UNK         0.3013 
    105 H105       29.2373   26.4915    2.2420 H         1 UNK         0.3121 
    106 H106       31.7545   27.4641    3.3102 H         1 UNK         0.0774 
    107 H107       29.5116   25.7824    4.5408 H         1 UNK         0.0815 
    108 H108       30.9832   26.1948    5.3840 H         1 UNK         0.0815 
    109 H109       31.0655   25.2242    3.9254 H         1 UNK         0.0815 
    110 H110       28.3602   28.3696    3.6279 H         1 UNK         0.2987 
    111 H111       28.6988   30.1701    5.8645 H         1 UNK         0.0949 
    112 H112       26.4881   30.0267    3.7415 H         1 UNK         0.0806 
    113 H113       26.4816   29.1981    5.2971 H         1 UNK         0.0806 
    114 H114       26.4208   30.9520    5.2328 H         1 UNK         0.0806 
    115 H115       28.5843   30.5978    2.2954 H         1 UNK         0.3010 
    116 H116       29.0035   33.4093    2.2871 H         1 UNK         0.0829 
    117 H117       28.0515   32.1903    0.3570 H         1 UNK         0.0813 
    118 H118       29.5034   33.0454   -0.1412 H         1 UNK         0.0813 
    119 H119       29.5572   31.3067    0.1245 H         1 UNK         0.0813 
    120 H120       31.3460   30.6885    1.8873 H         1 UNK         0.3038 
    121 H121       33.6262   32.4648    1.6555 H         1 UNK         0.0769 
    122 H122       33.4157   29.4348    2.0105 H         1 UNK         0.0811 
    123 H123       34.8920   30.3016    1.6103 H         1 UNK         0.0811 
    124 H124       33.5452   30.2937    0.4806 H         1 UNK         0.0811 
    125 H125       31.9246   31.2320    4.3682 H         1 UNK         0.3204 
    126 H126       32.1631   31.2386    6.5551 H         1 UNK         0.0748 
    127 H127       34.5347   33.1517    6.2212 H         1 UNK         0.0771 
    128 H128       32.8420   33.6331    6.3310 H         1 UNK         0.0771 
    129 H129       33.6286   32.8579    7.6967 H         1 UNK         0.0771 
    130 H130       32.9335   29.0340    5.4298 H         1 UNK         0.2980 
    131 H131       35.6149   28.1542    6.1425 H         1 UNK         0.0545 
    132 H132       35.1542   26.3514    9.1772 H         1 UNK         0.3459 
    133 H133       36.1909   26.5958    7.7962 H         1 UNK         0.3459 
    134 H134       34.7999   25.8925    5.4079 H         1 UNK         0.0616 
    135 H135       33.2029   26.5441    5.1567 H         1 UNK         0.0616 
    136 H136       35.5609   25.0455    3.4125 H         1 UNK         0.0634 
    137 H137       35.9664   25.9308    1.9729 H         1 UNK         0.0634 
@<TRIPOS>BOND
     1    1    2 1    
     2    1   72 1    
     3    1   73 1    
     4    1   74 1    
     5    2    3 2    
     6    2    4 am   BACKBONE|DICT|INTERRES
     7    4    5 1    
     8    4   75 1    
     9    5    6 1    
    10    5   35 1    
    11    5   76 1    
    12    6    7 1    
    13    6   77 1    
    14    6   78 1    
    15    7    8 1    
    16    8    9 1    
    17    8   79 1    
    18    8   80 1    
    19    9   10 ar   
    20    9   14 ar   
    21   10   11 ar   
    22   10   81 1    
    23   11   12 ar   
    24   11   71 1    
    25   12   13 ar   
    26   12   82 1    
    27   13   14 ar   
    28   13   15 1    
    29   14   83 1    
    30   15   16 1    
    31   15   84 1    
    32   15   85 1    
    33   16   17 1    
    34   17   18 1    
    35   17   86 1    
    36   17   87 1    
    37   18   19 1    
    38   18   37 1    
    39   18   88 1    
    40   19   20 am   BACKBONE|DICT|INTERRES
    41   19   89 1    
    42   20   21 2    
    43   20   22 1    
    44   22   23 1    
    45   22   24 1    
    46   22   90 1    
    47   23   91 1    
    48   23   92 1    
    49   23   93 1    
    50   24   25 am   BACKBONE|DICT|INTERRES
    51   24   94 1    
    52   25   26 2    
    53   25   27 1    
    54   27   28 1    
    55   27   29 1    
    56   27   95 1    
    57   28   96 1    
    58   28   97 1    
    59   28   98 1    
    60   29   30 am   BACKBONE|DICT|INTERRES
    61   29   99 1    
    62   30   31 2    
    63   30   32 1    
    64   32   33 1    
    65   32   34 1    
    66   32  100 1    
    67   33  101 1    
    68   33  102 1    
    69   33  103 1    
    70   34   35 am   BACKBONE|DICT|INTERRES
    71   34  104 1    
    72   35   36 2    
    73   37   38 2    
    74   37   39 am   BACKBONE|DICT|INTERRES
    75   39   40 1    
    76   39  105 1    
    77   40   41 1    
    78   40   42 1    
    79   40  106 1    
    80   41  107 1    
    81   41  108 1    
    82   41  109 1    
    83   42   43 2    
    84   42   44 am   BACKBONE|DICT|INTERRES
    85   44   45 1    
    86   44  110 1    
    87   45   46 1    
    88   45   47 1    
    89   45  111 1    
    90   46  112 1    
    91   46  113 1    
    92   46  114 1    
    93   47   48 2    
    94   47   49 am   BACKBONE|DICT|INTERRES
    95   49   50 1    
    96   49  115 1    
    97   50   51 1    
    98   50   52 1    
    99   50  116 1    
   100   51  117 1    
   101   51  118 1    
   102   51  119 1    
   103   52   53 2    
   104   52   54 am   BACKBONE|DICT|INTERRES
   105   54   55 1    
   106   54  120 1    
   107   55   56 1    
   108   55   57 1    
   109   55  121 1    
   110   56  122 1    
   111   56  123 1    
   112   56  124 1    
   113   57   58 2    
   114   57   59 am   BACKBONE|DICT|INTERRES
   115   59   60 1    
   116   59  125 1    
   117   60   61 1    
   118   60   62 1    
   119   60  126 1    
   120   61  127 1    
   121   61  128 1    
   122   61  129 1    
   123   62   63 2    
   124   62   64 am   BACKBONE|DICT|INTERRES
   125   64   65 1    
   126   64  130 1    
   127   65   66 1    
   128   65   69 1    
   129   65  131 1    
   130   66   67 am   BACKBONE|DICT|INTERRES
   131   66   68 2    
   132   67  132 1    
   133   67  133 1    
   134   69   70 1    
   135   69  134 1    
   136   69  135 1    
   137   70   71 1    
   138   71  136 1    
   139   71  137 1    
@<TRIPOS>SUBSTRUCTURE
     1 UNK         1 GROUP             0       ****    0 ROOT    
