@<TRIPOS>MOLECULE
3R136
137   139    1
SMALL
USER_CHARGES


@<TRIPOS>ATOM
      1 CA         27.0256   21.1222    3.2610 C.3       0 UNK        -0.1979 
      2 C          27.2623   21.3246    1.7726 C.2       0 UNK         0.4864 
      3 O          26.4080   20.9658    0.9603 O.2       0 UNK        -0.5359 
      4 N          28.4134   21.9029    1.4063 N.am      1 UNK        -0.4318 
      5 CA         28.8750   22.1456    0.0308 C.3       1 UNK         0.0824 
      6 C6         30.4168   22.3224   -0.0418 C.3       12 UNK        -0.0944 
      7 S7         31.3314   21.0062    0.8435 S.3       12 UNK        -0.2672 
      8 C8         32.8838   21.8339    1.3390 C.3       12 UNK         0.0333 
      9 C9         32.6591   23.1771    2.0235 C.ar      12 UNK        -0.0807 
     10 C10        33.2112   24.3382    1.4737 C.ar      12 UNK        -0.0894 
     11 C11        32.9731   25.5850    2.0573 C.ar      12 UNK        -0.0804 
     12 C12        32.1635   25.6681    3.1930 C.ar      12 UNK        -0.0824 
     13 C13        31.5966   24.5156    3.7481 C.ar      12 UNK        -0.0762 
     14 C14        31.8709   23.2696    3.1752 C.ar      12 UNK        -0.0782 
     15 C15        30.6692   24.6235    4.9522 C.3       12 UNK         0.0230 
     16 S16        28.9699   24.0366    4.6107 S.3       12 UNK        -0.2608 
     17 C17        28.5311   24.7985    3.0072 C.3       12 UNK        -0.0989 
     18 CA         28.6283   26.3387    2.9584 C.3       5 UNK         0.0716 
     19 N          28.7602   26.8067    1.5785 N.am      5 UNK        -0.4135 
     20 C          29.6055   27.7667    1.1822 C.2       4 UNK         0.5031 
     21 O          30.4231   28.3029    1.9266 O.2       4 UNK        -0.5229 
     22 CA         29.5378   28.2133   -0.2902 C.3       4 UNK         0.0329 
     23 CB         30.6733   27.5722   -1.1020 C.3       4 UNK        -0.2001 
     24 N          28.2568   27.9156   -0.9363 N.am      4 UNK        -0.4303 
     25 C          27.1028   28.5293   -0.6406 C.2       3 UNK         0.5044 
     26 O          26.9993   29.4200    0.2003 O.2       3 UNK        -0.5152 
     27 CA         25.8372   28.0339   -1.3598 C.3       3 UNK         0.0319 
     28 CB         25.6213   28.8189   -2.6628 C.3       3 UNK        -0.2001 
     29 N          25.8228   26.5967   -1.6491 N.am      3 UNK        -0.4354 
     30 C          25.9741   25.6073   -0.7564 C.2       2 UNK         0.4964 
     31 O          26.2073   25.7995    0.4408 O.2       2 UNK        -0.5047 
     32 CA         25.8350   24.1647   -1.2875 C.3       2 UNK         0.0288 
     33 CB         25.9085   24.0507   -2.8284 C.3       2 UNK        -0.2113 
     34 N          26.7865   23.2336   -0.6733 N.am      2 UNK        -0.4145 
     35 C          28.1236   23.3204   -0.6458 C.2       1 UNK         0.5006 
     36 O          28.7536   24.2701   -1.1187 O.2       1 UNK        -0.5103 
     37 C          27.4578   27.0411    3.6704 C.2       5 UNK         0.5055 
     38 O          27.5289   27.2337    4.8840 O.2       5 UNK        -0.5220 
     39 N          26.4254   27.4609    2.9202 N.am      6 UNK        -0.4450 
     40 CA         25.3629   28.3442    3.4126 C.3       6 UNK         0.0367 
     41 CB         24.2405   28.4561    2.3689 C.3       6 UNK        -0.1929 
     42 C          25.9167   29.7314    3.7865 C.2       6 UNK         0.5070 
     43 O          25.6753   30.2076    4.8956 O.2       6 UNK        -0.5237 
     44 N          26.7113   30.3193    2.8830 N.am      7 UNK        -0.4739 
     45 CA         27.5273   31.5081    3.1220 C.3       7 UNK         0.0276 
     46 CB         27.5288   32.3791    1.8519 C.3       7 UNK        -0.1927 
     47 C          28.9406   31.0640    3.5354 C.2       7 UNK         0.5013 
     48 O          29.9050   31.3224    2.8119 O.2       7 UNK        -0.5193 
     49 N          29.0264   30.3904    4.6947 N.am      8 UNK        -0.4253 
     50 CA         30.2113   29.7127    5.2458 C.3       8 UNK         0.0242 
     51 CB         29.8844   29.1791    6.6497 C.3       8 UNK        -0.2000 
     52 C          31.5036   30.5452    5.2972 C.2       8 UNK         0.4948 
     53 O          32.5902   29.9687    5.2343 O.2       8 UNK        -0.5275 
     54 N          31.3739   31.8786    5.3561 N.am      9 UNK        -0.4246 
     55 CA         32.4568   32.8626    5.2506 C.3       9 UNK         0.0261 
     56 CB         31.8609   34.2738    5.3811 C.3       9 UNK        -0.1959 
     57 C          33.3085   32.7545    3.9676 C.2       9 UNK         0.5033 
     58 O          34.4252   33.2742    3.9548 O.2       9 UNK        -0.5390 
     59 N          32.8013   32.0662    2.9318 N.am      10 UNK        -0.4215 
     60 CA         33.5546   31.6746    1.7375 C.3       10 UNK         0.0240 
     61 CB         32.5973   31.0292    0.7227 C.3       10 UNK        -0.1982 
     62 C          34.7421   30.7329    2.0296 C.2       10 UNK         0.4970 
     63 O          35.7157   30.7694    1.2756 O.2       10 UNK        -0.4916 
     64 N          34.6551   29.9323    3.1022 N.am      11 UNK        -0.4279 
     65 CA         35.7368   29.0632    3.5966 C.3       11 UNK         0.1003 
     66 C          36.1681   29.4106    5.0473 C.2       11 UNK         0.5709 
     67 N          35.3003   29.9472    5.8958 N.am      11 UNK        -0.7358 
     68 O          37.3245   29.2021    5.4070 O.2       11 UNK        -0.4999 
     69 C69        35.3769   27.5593    3.4778 C.3       12 UNK        -0.0954 
     70 S70        35.3435   26.9951    1.7449 S.3       12 UNK        -0.2268 
     71 C71        33.5600   26.8420    1.4315 C.3       12 UNK         0.0203 
     72 H72        26.6256   20.1259    3.4474 H         1 UNK         0.0888 
     73 H73        27.9464   21.2259    3.8347 H         1 UNK         0.0888 
     74 H74        26.3078   21.8542    3.6301 H         1 UNK         0.0888 
     75 H75        29.0750   22.1621    2.1235 H         1 UNK         0.3017 
     76 H76        28.6312   21.2554   -0.5532 H         1 UNK         0.0873 
     77 H77        30.6911   23.2969    0.3622 H         1 UNK         0.0745 
     78 H78        30.7501   22.3248   -1.0812 H         1 UNK         0.0745 
     79 H79        33.4340   21.1779    2.0146 H         1 UNK         0.0705 
     80 H80        33.5075   21.9525    0.4515 H         1 UNK         0.0705 
     81 H81        33.8203   24.2778    0.5821 H         1 UNK         0.1334 
     82 H82        31.9596   26.6368    3.6291 H         1 UNK         0.1417 
     83 H83        31.4341   22.3759    3.5999 H         1 UNK         0.1562 
     84 H84        30.6212   25.6507    5.3173 H         1 UNK         0.0748 
     85 H85        31.0834   24.0346    5.7716 H         1 UNK         0.0748 
     86 H86        27.5342   24.4630    2.7139 H         1 UNK         0.0940 
     87 H87        29.2121   24.3798    2.2657 H         1 UNK         0.0940 
     88 H88        29.5218   26.6362    3.5050 H         1 UNK         0.0703 
     89 H89        28.1108   26.4142    0.9062 H         1 UNK         0.3081 
     90 H90        29.6776   29.2967   -0.3056 H         1 UNK         0.0719 
     91 H91        31.6429   27.8819   -0.7129 H         1 UNK         0.0809 
     92 H92        30.6377   27.8759   -2.1482 H         1 UNK         0.0809 
     93 H93        30.6334   26.4823   -1.0637 H         1 UNK         0.0809 
     94 H94        28.2483   27.1675   -1.6156 H         1 UNK         0.2990 
     95 H95        24.9895   28.2338   -0.7032 H         1 UNK         0.0690 
     96 H96        24.6705   28.5611   -3.1298 H         1 UNK         0.0788 
     97 H97        26.4149   28.6282   -3.3864 H         1 UNK         0.0788 
     98 H98        25.6047   29.8933   -2.4728 H         1 UNK         0.0788 
     99 H99        25.6475   26.3364   -2.6091 H         1 UNK         0.2993 
    100 H100       24.8441   23.8305   -0.9764 H         1 UNK         0.0949 
    101 H101       25.0943   24.5917   -3.3122 H         1 UNK         0.0767 
    102 H102       26.8506   24.4358   -3.2215 H         1 UNK         0.0767 
    103 H103       25.8226   23.0114   -3.1463 H         1 UNK         0.0767 
    104 H104       26.3810   22.4306   -0.1959 H         1 UNK         0.3013 
    105 H105       26.3914   27.1958    1.9428 H         1 UNK         0.3121 
    106 H106       24.9441   27.8926    4.3146 H         1 UNK         0.0774 
    107 H107       23.3954   29.0160    2.7712 H         1 UNK         0.0815 
    108 H108       24.5713   28.9761    1.4706 H         1 UNK         0.0815 
    109 H109       23.8693   27.4743    2.0739 H         1 UNK         0.0815 
    110 H110       26.8518   29.8658    1.9813 H         1 UNK         0.2987 
    111 H111       27.1085   32.1020    3.9374 H         1 UNK         0.0949 
    112 H112       27.9608   31.8522    1.0001 H         1 UNK         0.0806 
    113 H113       26.5182   32.6826    1.5787 H         1 UNK         0.0806 
    114 H114       28.1125   33.2879    2.0032 H         1 UNK         0.0806 
    115 H115       28.1605   30.2269    5.1915 H         1 UNK         0.3010 
    116 H116       30.4133   28.8600    4.5950 H         1 UNK         0.0829 
    117 H117       29.0442   28.4859    6.6308 H         1 UNK         0.0813 
    118 H118       30.7340   28.6388    7.0702 H         1 UNK         0.0813 
    119 H119       29.6369   29.9865    7.3399 H         1 UNK         0.0813 
    120 H120       30.4360   32.2497    5.3924 H         1 UNK         0.3038 
    121 H121       33.1298   32.6930    6.0935 H         1 UNK         0.0769 
    122 H122       32.6426   35.0338    5.3398 H         1 UNK         0.0811 
    123 H123       31.3403   34.4005    6.3305 H         1 UNK         0.0811 
    124 H124       31.1552   34.4885    4.5774 H         1 UNK         0.0811 
    125 H125       31.8473   31.7179    2.9986 H         1 UNK         0.3204 
    126 H126       33.9612   32.5851    1.2927 H         1 UNK         0.0748 
    127 H127       33.1208   30.7582   -0.1951 H         1 UNK         0.0771 
    128 H128       32.1464   30.1207    1.1220 H         1 UNK         0.0771 
    129 H129       31.7893   31.7082    0.4494 H         1 UNK         0.0771 
    130 H130       33.8299   29.9812    3.6903 H         1 UNK         0.2980 
    131 H131       36.6334   29.2286    2.9961 H         1 UNK         0.0545 
    132 H132       34.3163   30.0367    5.6529 H         1 UNK         0.3459 
    133 H133       35.6067   30.1726    6.8282 H         1 UNK         0.3459 
    134 H134       34.4230   27.3516    3.9649 H         1 UNK         0.0616 
    135 H135       36.1180   26.9428    3.9902 H         1 UNK         0.0616 
    136 H136       33.0496   27.7378    1.7874 H         1 UNK         0.0634 
    137 H137       33.4058   26.8064    0.3531 H         1 UNK         0.0634 
@<TRIPOS>BOND
     1    1    2 1    
     2    1   72 1    
     3    1   73 1    
     4    1   74 1    
     5    2    3 2    
     6    2    4 am   BACKBONE|DICT|INTERRES
     7    4    5 1    
     8    4   75 1    
     9    5    6 1    
    10    5   35 1    
    11    5   76 1    
    12    6    7 1    
    13    6   77 1    
    14    6   78 1    
    15    7    8 1    
    16    8    9 1    
    17    8   79 1    
    18    8   80 1    
    19    9   10 ar   
    20    9   14 ar   
    21   10   11 ar   
    22   10   81 1    
    23   11   12 ar   
    24   11   71 1    
    25   12   13 ar   
    26   12   82 1    
    27   13   14 ar   
    28   13   15 1    
    29   14   83 1    
    30   15   16 1    
    31   15   84 1    
    32   15   85 1    
    33   16   17 1    
    34   17   18 1    
    35   17   86 1    
    36   17   87 1    
    37   18   19 1    
    38   18   37 1    
    39   18   88 1    
    40   19   20 am   BACKBONE|DICT|INTERRES
    41   19   89 1    
    42   20   21 2    
    43   20   22 1    
    44   22   23 1    
    45   22   24 1    
    46   22   90 1    
    47   23   91 1    
    48   23   92 1    
    49   23   93 1    
    50   24   25 am   BACKBONE|DICT|INTERRES
    51   24   94 1    
    52   25   26 2    
    53   25   27 1    
    54   27   28 1    
    55   27   29 1    
    56   27   95 1    
    57   28   96 1    
    58   28   97 1    
    59   28   98 1    
    60   29   30 am   BACKBONE|DICT|INTERRES
    61   29   99 1    
    62   30   31 2    
    63   30   32 1    
    64   32   33 1    
    65   32   34 1    
    66   32  100 1    
    67   33  101 1    
    68   33  102 1    
    69   33  103 1    
    70   34   35 am   BACKBONE|DICT|INTERRES
    71   34  104 1    
    72   35   36 2    
    73   37   38 2    
    74   37   39 am   BACKBONE|DICT|INTERRES
    75   39   40 1    
    76   39  105 1    
    77   40   41 1    
    78   40   42 1    
    79   40  106 1    
    80   41  107 1    
    81   41  108 1    
    82   41  109 1    
    83   42   43 2    
    84   42   44 am   BACKBONE|DICT|INTERRES
    85   44   45 1    
    86   44  110 1    
    87   45   46 1    
    88   45   47 1    
    89   45  111 1    
    90   46  112 1    
    91   46  113 1    
    92   46  114 1    
    93   47   48 2    
    94   47   49 am   BACKBONE|DICT|INTERRES
    95   49   50 1    
    96   49  115 1    
    97   50   51 1    
    98   50   52 1    
    99   50  116 1    
   100   51  117 1    
   101   51  118 1    
   102   51  119 1    
   103   52   53 2    
   104   52   54 am   BACKBONE|DICT|INTERRES
   105   54   55 1    
   106   54  120 1    
   107   55   56 1    
   108   55   57 1    
   109   55  121 1    
   110   56  122 1    
   111   56  123 1    
   112   56  124 1    
   113   57   58 2    
   114   57   59 am   BACKBONE|DICT|INTERRES
   115   59   60 1    
   116   59  125 1    
   117   60   61 1    
   118   60   62 1    
   119   60  126 1    
   120   61  127 1    
   121   61  128 1    
   122   61  129 1    
   123   62   63 2    
   124   62   64 am   BACKBONE|DICT|INTERRES
   125   64   65 1    
   126   64  130 1    
   127   65   66 1    
   128   65   69 1    
   129   65  131 1    
   130   66   67 am   BACKBONE|DICT|INTERRES
   131   66   68 2    
   132   67  132 1    
   133   67  133 1    
   134   69   70 1    
   135   69  134 1    
   136   69  135 1    
   137   70   71 1    
   138   71  136 1    
   139   71  137 1    
@<TRIPOS>SUBSTRUCTURE
     1 UNK         1 GROUP             0       ****    0 ROOT    
