@<TRIPOS>MOLECULE
3R136
137   139    1
SMALL
USER_CHARGES


@<TRIPOS>ATOM
      1 CA         27.6712   19.7232   -1.3619 C.3       0 UNK        -0.1979 
      2 C          28.6882   20.1649   -0.3196 C.2       0 UNK         0.4864 
      3 O          28.8797   19.4714    0.6803 O.2       0 UNK        -0.5359 
      4 N          29.3408   21.3088   -0.5478 N.am      1 UNK        -0.4318 
      5 CA         30.3779   21.8885    0.3030 C.3       1 UNK         0.0824 
      6 C6         29.7956   22.5541    1.5819 C.3       12 UNK        -0.0944 
      7 S7         30.9919   22.5539    2.9579 S.3       12 UNK        -0.2672 
      8 C8         29.9468   22.1113    4.3826 C.3       12 UNK         0.0333 
      9 C9         28.9782   23.2307    4.7362 C.ar      12 UNK        -0.0807 
     10 C10        29.4487   24.3959    5.3493 C.ar      12 UNK        -0.0894 
     11 C11        28.5790   25.4579    5.6319 C.ar      12 UNK        -0.0804 
     12 C12        27.2147   25.3007    5.3695 C.ar      12 UNK        -0.0824 
     13 C13        26.7303   24.1422    4.7543 C.ar      12 UNK        -0.0762 
     14 C14        27.6182   23.1106    4.4376 C.ar      12 UNK        -0.0782 
     15 C15        25.2526   24.0110    4.4114 C.3       12 UNK         0.0230 
     16 S16        24.8925   24.6169    2.7288 S.3       12 UNK        -0.2608 
     17 C17        24.9677   26.4270    2.9594 C.3       12 UNK        -0.0989 
     18 CA         26.3382   27.0196    2.5314 C.3       5 UNK         0.0716 
     19 N          26.6448   26.8300    1.1098 N.am      5 UNK        -0.4135 
     20 C          26.0353   27.3483    0.0377 C.2       4 UNK         0.5031 
     21 O          25.0487   28.0832    0.0981 O.2       4 UNK        -0.5229 
     22 CA         26.6926   27.0314   -1.3255 C.3       4 UNK         0.0329 
     23 CB         26.0024   27.7561   -2.4964 C.3       4 UNK        -0.2001 
     24 N          28.1302   27.3465   -1.3524 N.am      4 UNK        -0.4303 
     25 C          29.0900   26.6406   -0.7397 C.2       3 UNK         0.5044 
     26 O          28.8624   25.6328   -0.0636 O.2       3 UNK        -0.5152 
     27 CA         30.5245   27.1712   -0.8390 C.3       3 UNK         0.0319 
     28 CB         30.7305   28.3730    0.1005 C.3       3 UNK        -0.2001 
     29 N          31.4115   26.0840   -0.4415 N.am      3 UNK        -0.4354 
     30 C          32.5430   25.7211   -1.0525 C.2       2 UNK         0.4964 
     31 O          33.0760   26.3700   -1.9533 O.2       2 UNK        -0.5047 
     32 CA         33.1858   24.3952   -0.5975 C.3       2 UNK         0.0288 
     33 CB         34.3604   24.6717    0.3552 C.3       2 UNK        -0.2113 
     34 N          32.2555   23.4545    0.0446 N.am      2 UNK        -0.4145 
     35 C          31.2194   22.8531   -0.5588 C.2       1 UNK         0.5006 
     36 O          30.9238   23.0332   -1.7449 O.2       1 UNK        -0.5103 
     37 C          26.5453   28.4654    3.0423 C.2       5 UNK         0.5055 
     38 O          26.2020   28.7550    4.1900 O.2       5 UNK        -0.5220 
     39 N          27.1297   29.3427    2.2166 N.am      6 UNK        -0.4450 
     40 CA         27.4674   30.7189    2.5588 C.3       6 UNK         0.0367 
     41 CB         27.5233   31.5582    1.2699 C.3       6 UNK        -0.1929 
     42 C          28.8054   30.7452    3.3062 C.2       6 UNK         0.5070 
     43 O          29.8576   30.6886    2.6690 O.2       6 UNK        -0.5237 
     44 N          28.7529   30.8392    4.6411 N.am      7 UNK        -0.4739 
     45 CA         29.9326   30.9163    5.5128 C.3       7 UNK         0.0276 
     46 CB         29.4933   30.9011    6.9844 C.3       7 UNK        -0.1927 
     47 C          30.8339   32.1279    5.2184 C.2       7 UNK         0.5013 
     48 O          32.0571   32.0051    5.2851 O.2       7 UNK        -0.5193 
     49 N          30.2154   33.2480    4.8173 N.am      8 UNK        -0.4253 
     50 CA         30.8821   34.4690    4.3549 C.3       8 UNK         0.0242 
     51 CB         29.8300   35.5750    4.1715 C.3       8 UNK        -0.2000 
     52 C          31.7023   34.2897    3.0614 C.2       8 UNK         0.4948 
     53 O          32.6045   35.0906    2.8159 O.2       8 UNK        -0.5275 
     54 N          31.4004   33.2471    2.2731 N.am      9 UNK        -0.4246 
     55 CA         32.1425   32.8595    1.0716 C.3       9 UNK         0.0261 
     56 CB         31.1436   32.4051   -0.0075 C.3       9 UNK        -0.1959 
     57 C          33.1957   31.7703    1.3617 C.2       9 UNK         0.5033 
     58 O          33.7456   31.2161    0.4093 O.2       9 UNK        -0.5390 
     59 N          33.4657   31.4932    2.6490 N.am      10 UNK        -0.4215 
     60 CA         34.3999   30.4968    3.1810 C.3       10 UNK         0.0240 
     61 CB         35.8534   30.7942    2.7511 C.3       10 UNK        -0.1982 
     62 C          33.9494   29.0636    2.8538 C.2       10 UNK         0.4970 
     63 O          34.5762   28.3832    2.0388 O.2       10 UNK        -0.4916 
     64 N          32.8604   28.6385    3.5072 N.am      11 UNK        -0.4279 
     65 CA         32.3497   27.2606    3.4720 C.3       11 UNK         0.1003 
     66 C          33.3304   26.2139    4.0902 C.2       11 UNK         0.5709 
     67 N          33.0555   24.9285    3.9250 N.am      11 UNK        -0.7358 
     68 O          34.3217   26.5468    4.7386 O.2       11 UNK        -0.4999 
     69 C69        30.9055   27.1827    4.0477 C.3       12 UNK        -0.0954 
     70 S70        30.8127   27.2145    5.8767 S.3       12 UNK        -0.2268 
     71 C71        29.0633   26.7942    6.2012 C.3       12 UNK         0.0203 
     72 H72        26.6845   19.6333   -0.9084 H         1 UNK         0.0888 
     73 H73        27.6012   20.4307   -2.1881 H         1 UNK         0.0888 
     74 H74        27.9493   18.7518   -1.7698 H         1 UNK         0.0888 
     75 H75        29.2029   21.8218   -1.4111 H         1 UNK         0.3017 
     76 H76        31.0425   21.0710    0.5923 H         1 UNK         0.0873 
     77 H77        29.4559   23.5733    1.3956 H         1 UNK         0.0745 
     78 H78        28.9096   22.0114    1.9131 H         1 UNK         0.0745 
     79 H79        29.4160   21.1814    4.1722 H         1 UNK         0.0705 
     80 H80        30.5895   21.9085    5.2405 H         1 UNK         0.0705 
     81 H81        30.5040   24.4826    5.5671 H         1 UNK         0.1334 
     82 H82        26.5314   26.1063    5.6028 H         1 UNK         0.1417 
     83 H83        27.2497   22.2174    3.9514 H         1 UNK         0.1562 
     84 H84        24.6393   24.5429    5.1404 H         1 UNK         0.0748 
     85 H85        24.9530   22.9638    4.4758 H         1 UNK         0.0748 
     86 H86        24.7443   26.6499    4.0039 H         1 UNK         0.0940 
     87 H87        24.1602   26.8843    2.3856 H         1 UNK         0.0940 
     88 H88        27.1202   26.4532    3.0327 H         1 UNK         0.0703 
     89 H89        27.4525   26.2403    0.9159 H         1 UNK         0.3081 
     90 H90        26.5750   25.9576   -1.4879 H         1 UNK         0.0719 
     91 H91        26.0763   28.8401   -2.4007 H         1 UNK         0.0809 
     92 H92        26.4405   27.4719   -3.4534 H         1 UNK         0.0809 
     93 H93        24.9419   27.5042   -2.5423 H         1 UNK         0.0809 
     94 H94        28.3945   28.1762   -1.8647 H         1 UNK         0.2990 
     95 H95        30.7186   27.4649   -1.8728 H         1 UNK         0.0690 
     96 H96        31.7670   28.7127    0.0932 H         1 UNK         0.0788 
     97 H97        30.4663   28.1355    1.1313 H         1 UNK         0.0788 
     98 H98        30.1121   29.2173   -0.2034 H         1 UNK         0.0788 
     99 H99        30.9940   25.4414    0.2188 H         1 UNK         0.2993 
    100 H100       33.5788   23.9078   -1.4924 H         1 UNK         0.0949 
    101 H101       34.8674   23.7508    0.6440 H         1 UNK         0.0767 
    102 H102       35.1034   25.3144   -0.1193 H         1 UNK         0.0767 
    103 H103       34.0324   25.1768    1.2635 H         1 UNK         0.0767 
    104 H104       32.4208   23.2454    1.0202 H         1 UNK         0.3013 
    105 H105       27.4081   29.0240    1.3016 H         1 UNK         0.3121 
    106 H106       26.6908   31.1401    3.2011 H         1 UNK         0.0774 
    107 H107       27.8236   32.5849    1.4838 H         1 UNK         0.0815 
    108 H108       28.2345   31.1538    0.5492 H         1 UNK         0.0815 
    109 H109       26.5478   31.6003    0.7851 H         1 UNK         0.0815 
    110 H110       27.8481   30.8323    5.0923 H         1 UNK         0.2987 
    111 H111       30.5336   30.0263    5.3272 H         1 UNK         0.0949 
    112 H112       28.8569   31.7529    7.2272 H         1 UNK         0.0806 
    113 H113       28.9440   29.9902    7.2235 H         1 UNK         0.0806 
    114 H114       30.3576   30.9383    7.6492 H         1 UNK         0.0806 
    115 H115       29.2060   33.2435    4.7893 H         1 UNK         0.3010 
    116 H116       31.5777   34.7818    5.1366 H         1 UNK         0.0829 
    117 H117       29.2994   35.7779    5.1020 H         1 UNK         0.0813 
    118 H118       30.2969   36.5100    3.8580 H         1 UNK         0.0813 
    119 H119       29.0924   35.3095    3.4131 H         1 UNK         0.0813 
    120 H120       30.6776   32.5969    2.5633 H         1 UNK         0.3038 
    121 H121       32.6822   33.7234    0.6783 H         1 UNK         0.0769 
    122 H122       30.6311   31.4897    0.2833 H         1 UNK         0.0811 
    123 H123       31.6501   32.2063   -0.9527 H         1 UNK         0.0811 
    124 H124       30.3889   33.1678   -0.1994 H         1 UNK         0.0811 
    125 H125       32.9286   31.9823    3.3564 H         1 UNK         0.3204 
    126 H126       34.3639   30.5962    4.2673 H         1 UNK         0.0748 
    127 H127       36.5465   30.1020    3.2307 H         1 UNK         0.0771 
    128 H128       35.9944   30.6948    1.6746 H         1 UNK         0.0771 
    129 H129       36.1522   31.8028    3.0364 H         1 UNK         0.0771 
    130 H130       32.4124   29.2587    4.1638 H         1 UNK         0.2980 
    131 H131       32.2821   27.0019    2.4137 H         1 UNK         0.0545 
    132 H132       33.6781   24.2494    4.3322 H         1 UNK         0.3459 
    133 H133       32.2201   24.6164    3.4557 H         1 UNK         0.3459 
    134 H134       30.4295   26.2733    3.6821 H         1 UNK         0.0616 
    135 H135       30.2966   27.9992    3.6571 H         1 UNK         0.0616 
    136 H136       28.4511   27.6058    5.8036 H         1 UNK         0.0634 
    137 H137       28.9060   26.7881    7.2803 H         1 UNK         0.0634 
@<TRIPOS>BOND
     1    1    2 1    
     2    1   72 1    
     3    1   73 1    
     4    1   74 1    
     5    2    3 2    
     6    2    4 am   BACKBONE|DICT|INTERRES
     7    4    5 1    
     8    4   75 1    
     9    5    6 1    
    10    5   35 1    
    11    5   76 1    
    12    6    7 1    
    13    6   77 1    
    14    6   78 1    
    15    7    8 1    
    16    8    9 1    
    17    8   79 1    
    18    8   80 1    
    19    9   10 ar   
    20    9   14 ar   
    21   10   11 ar   
    22   10   81 1    
    23   11   12 ar   
    24   11   71 1    
    25   12   13 ar   
    26   12   82 1    
    27   13   14 ar   
    28   13   15 1    
    29   14   83 1    
    30   15   16 1    
    31   15   84 1    
    32   15   85 1    
    33   16   17 1    
    34   17   18 1    
    35   17   86 1    
    36   17   87 1    
    37   18   19 1    
    38   18   37 1    
    39   18   88 1    
    40   19   20 am   BACKBONE|DICT|INTERRES
    41   19   89 1    
    42   20   21 2    
    43   20   22 1    
    44   22   23 1    
    45   22   24 1    
    46   22   90 1    
    47   23   91 1    
    48   23   92 1    
    49   23   93 1    
    50   24   25 am   BACKBONE|DICT|INTERRES
    51   24   94 1    
    52   25   26 2    
    53   25   27 1    
    54   27   28 1    
    55   27   29 1    
    56   27   95 1    
    57   28   96 1    
    58   28   97 1    
    59   28   98 1    
    60   29   30 am   BACKBONE|DICT|INTERRES
    61   29   99 1    
    62   30   31 2    
    63   30   32 1    
    64   32   33 1    
    65   32   34 1    
    66   32  100 1    
    67   33  101 1    
    68   33  102 1    
    69   33  103 1    
    70   34   35 am   BACKBONE|DICT|INTERRES
    71   34  104 1    
    72   35   36 2    
    73   37   38 2    
    74   37   39 am   BACKBONE|DICT|INTERRES
    75   39   40 1    
    76   39  105 1    
    77   40   41 1    
    78   40   42 1    
    79   40  106 1    
    80   41  107 1    
    81   41  108 1    
    82   41  109 1    
    83   42   43 2    
    84   42   44 am   BACKBONE|DICT|INTERRES
    85   44   45 1    
    86   44  110 1    
    87   45   46 1    
    88   45   47 1    
    89   45  111 1    
    90   46  112 1    
    91   46  113 1    
    92   46  114 1    
    93   47   48 2    
    94   47   49 am   BACKBONE|DICT|INTERRES
    95   49   50 1    
    96   49  115 1    
    97   50   51 1    
    98   50   52 1    
    99   50  116 1    
   100   51  117 1    
   101   51  118 1    
   102   51  119 1    
   103   52   53 2    
   104   52   54 am   BACKBONE|DICT|INTERRES
   105   54   55 1    
   106   54  120 1    
   107   55   56 1    
   108   55   57 1    
   109   55  121 1    
   110   56  122 1    
   111   56  123 1    
   112   56  124 1    
   113   57   58 2    
   114   57   59 am   BACKBONE|DICT|INTERRES
   115   59   60 1    
   116   59  125 1    
   117   60   61 1    
   118   60   62 1    
   119   60  126 1    
   120   61  127 1    
   121   61  128 1    
   122   61  129 1    
   123   62   63 2    
   124   62   64 am   BACKBONE|DICT|INTERRES
   125   64   65 1    
   126   64  130 1    
   127   65   66 1    
   128   65   69 1    
   129   65  131 1    
   130   66   67 am   BACKBONE|DICT|INTERRES
   131   66   68 2    
   132   67  132 1    
   133   67  133 1    
   134   69   70 1    
   135   69  134 1    
   136   69  135 1    
   137   70   71 1    
   138   71  136 1    
   139   71  137 1    
@<TRIPOS>SUBSTRUCTURE
     1 UNK         1 GROUP             0       ****    0 ROOT    
