@<TRIPOS>MOLECULE
3R136
137   139    1
SMALL
USER_CHARGES


@<TRIPOS>ATOM
      1 CA         27.3692   22.8201   -1.2223 C.3       0 UNK        -0.1979 
      2 C          27.6859   22.9601    0.2592 C.2       0 UNK         0.4864 
      3 O          27.0499   22.2972    1.0805 O.2       0 UNK        -0.5359 
      4 N          28.6534   23.8229    0.6024 N.am      1 UNK        -0.4318 
      5 CA         29.1555   24.1381    1.9504 C.3       1 UNK         0.0824 
      6 C6         29.7022   22.9200    2.7482 C.3       12 UNK        -0.0944 
      7 S7         30.9483   21.9369    1.8492 S.3       12 UNK        -0.2672 
      8 C8         32.5057   22.7969    2.2682 C.3       12 UNK         0.0333 
      9 C9         32.7549   24.0834    1.4801 C.ar      12 UNK        -0.0807 
     10 C10        33.4909   25.1183    2.0697 C.ar      12 UNK        -0.0894 
     11 C11        33.7758   26.2869    1.3559 C.ar      12 UNK        -0.0804 
     12 C12        33.3003   26.4278    0.0501 C.ar      12 UNK        -0.0824 
     13 C13        32.5424   25.4172   -0.5452 C.ar      12 UNK        -0.0762 
     14 C14        32.3008   24.2371    0.1630 C.ar      12 UNK        -0.0782 
     15 C15        31.9925   25.6011   -1.9528 C.3       12 UNK         0.0230 
     16 S16        30.1730   25.5042   -1.9793 S.3       12 UNK        -0.2608 
     17 C17        29.7974   26.2531   -3.6062 C.3       12 UNK        -0.0989 
     18 CA         28.9011   27.5158   -3.5203 C.3       5 UNK         0.0716 
     19 N          27.6044   27.2086   -2.9137 N.am      5 UNK        -0.4135 
     20 C          26.5143   27.9843   -2.9572 C.2       4 UNK         0.5031 
     21 O          26.4696   29.0792   -3.5195 O.2       4 UNK        -0.5229 
     22 CA         25.2472   27.4390   -2.2728 C.3       4 UNK         0.0329 
     23 CB         25.1174   25.9008   -2.3586 C.3       4 UNK        -0.2001 
     24 N          25.1131   27.8939   -0.8852 N.am      4 UNK        -0.4303 
     25 C          25.9608   27.6759    0.1310 C.2       3 UNK         0.5044 
     26 O          27.0359   27.0803    0.0139 O.2       3 UNK        -0.5152 
     27 CA         25.5448   28.1987    1.5227 C.3       3 UNK         0.0319 
     28 CB         24.1143   28.7821    1.6040 C.3       3 UNK        -0.2001 
     29 N          25.7675   27.1666    2.5373 N.am      3 UNK        -0.4354 
     30 C          25.1427   25.9864    2.6423 C.2       2 UNK         0.4964 
     31 O          24.1611   25.6516    1.9764 O.2       2 UNK        -0.5047 
     32 CA         25.7844   24.9895    3.6209 C.3       2 UNK         0.0288 
     33 CB         24.8062   23.8901    4.0740 C.3       2 UNK        -0.2113 
     34 N          26.9387   24.3625    2.9815 N.am      2 UNK        -0.4145 
     35 C          28.1339   24.9332    2.7877 C.2       1 UNK         0.5006 
     36 O          28.4353   26.0451    3.2296 O.2       1 UNK        -0.5103 
     37 C          29.6293   28.6960   -2.8399 C.2       5 UNK         0.5055 
     38 O          30.3669   29.4142   -3.5173 O.2       5 UNK        -0.5220 
     39 N          29.4186   28.8715   -1.5295 N.am      6 UNK        -0.4450 
     40 CA         30.0286   29.9048   -0.6970 C.3       6 UNK         0.0367 
     41 CB         31.5279   29.6092   -0.4702 C.3       6 UNK        -0.1929 
     42 C          29.2036   29.9953    0.5934 C.2       6 UNK         0.5070 
     43 O          28.0063   30.2642    0.5067 O.2       6 UNK        -0.5237 
     44 N          29.8349   29.7525    1.7474 N.am      7 UNK        -0.4739 
     45 CA         29.2273   29.6383    3.0693 C.3       7 UNK         0.0276 
     46 CB         28.6537   30.9886    3.5491 C.3       7 UNK        -0.1927 
     47 C          30.3214   29.1343    4.0123 C.2       7 UNK         0.5013 
     48 O          31.1474   29.9362    4.4532 O.2       7 UNK        -0.5193 
     49 N          30.3403   27.8240    4.2933 N.am      8 UNK        -0.4253 
     50 CA         31.3723   27.1497    5.0965 C.3       8 UNK         0.0242 
     51 CB         31.1235   25.6360    5.0943 C.3       8 UNK        -0.2000 
     52 C          31.5293   27.6786    6.5326 C.2       8 UNK         0.4948 
     53 O          32.6129   27.5531    7.1016 O.2       8 UNK        -0.5275 
     54 N          30.4790   28.3116    7.0730 N.am      9 UNK        -0.4246 
     55 CA         30.5168   29.0639    8.3294 C.3       9 UNK         0.0261 
     56 CB         29.0870   29.4849    8.7066 C.3       9 UNK        -0.1959 
     57 C          31.4459   30.2953    8.2849 C.2       9 UNK         0.5033 
     58 O          31.9215   30.7159    9.3407 O.2       9 UNK        -0.5390 
     59 N          31.6865   30.8461    7.0861 N.am      10 UNK        -0.4215 
     60 CA         32.5961   31.9620    6.8433 C.3       10 UNK         0.0240 
     61 CB         31.9281   32.9787    5.9006 C.3       10 UNK        -0.1982 
     62 C          33.9277   31.4661    6.2620 C.2       10 UNK         0.4970 
     63 O          34.9768   31.8167    6.8041 O.2       10 UNK        -0.4916 
     64 N          33.8759   30.6848    5.1719 N.am      11 UNK        -0.4279 
     65 CA         35.0732   30.2159    4.4503 C.3       11 UNK         0.1003 
     66 C          35.8114   29.0008    5.0812 C.2       11 UNK         0.5709 
     67 N          35.2501   28.2979    6.0561 N.am      11 UNK        -0.7358 
     68 O          36.9353   28.6994    4.6866 O.2       11 UNK        -0.4999 
     69 C69        34.8251   30.0443    2.9273 C.3       12 UNK        -0.0954 
     70 S70        33.5722   28.7974    2.4827 S.3       12 UNK        -0.2268 
     71 C71        34.6121   27.3961    1.9758 C.3       12 UNK         0.0203 
     72 H72        27.6789   21.8379   -1.5779 H         1 UNK         0.0888 
     73 H73        26.2968   22.9189   -1.3881 H         1 UNK         0.0888 
     74 H74        27.8753   23.5741   -1.8236 H         1 UNK         0.0888 
     75 H75        29.1019   24.3525   -0.1345 H         1 UNK         0.3017 
     76 H76        29.9914   24.8194    1.7868 H         1 UNK         0.0873 
     77 H77        30.1288   23.2366    3.7002 H         1 UNK         0.0745 
     78 H78        28.8897   22.2405    3.0102 H         1 UNK         0.0745 
     79 H79        32.5241   22.9946    3.3411 H         1 UNK         0.0705 
     80 H80        33.3338   22.1158    2.0687 H         1 UNK         0.0705 
     81 H81        33.8588   25.0079    3.0808 H         1 UNK         0.1334 
     82 H82        33.5208   27.3326   -0.4993 H         1 UNK         0.1417 
     83 H83        31.7408   23.4460   -0.3157 H         1 UNK         0.1562 
     84 H84        32.4069   24.8364   -2.6110 H         1 UNK         0.0748 
     85 H85        32.3048   26.5660   -2.3559 H         1 UNK         0.0748 
     86 H86        29.3002   25.4954   -4.2141 H         1 UNK         0.0940 
     87 H87        30.7221   26.4830   -4.1391 H         1 UNK         0.0940 
     88 H88        28.6977   27.8347   -4.5450 H         1 UNK         0.0703 
     89 H89        27.5628   26.3637   -2.3627 H         1 UNK         0.3081 
     90 H90        24.4018   27.8631   -2.8169 H         1 UNK         0.0719 
     91 H91        25.2343   25.5519   -3.3856 H         1 UNK         0.0809 
     92 H92        24.1337   25.5752   -2.0201 H         1 UNK         0.0809 
     93 H93        25.8568   25.3844   -1.7472 H         1 UNK         0.0809 
     94 H94        24.2754   28.4211   -0.6831 H         1 UNK         0.2990 
     95 H95        26.2318   29.0055    1.7709 H         1 UNK         0.0690 
     96 H96        23.3522   28.0630    1.3020 H         1 UNK         0.0788 
     97 H97        24.0121   29.6626    0.9684 H         1 UNK         0.0788 
     98 H98        23.8808   29.0995    2.6203 H         1 UNK         0.0788 
     99 H99        26.6332   27.2568    3.0543 H         1 UNK         0.2993 
    100 H100       26.1149   25.5367    4.5068 H         1 UNK         0.0949 
    101 H101       24.4717   23.2746    3.2377 H         1 UNK         0.0767 
    102 H102       25.2670   23.2307    4.8097 H         1 UNK         0.0767 
    103 H103       23.9193   24.3244    4.5372 H         1 UNK         0.0767 
    104 H104       26.7745   23.4820    2.4974 H         1 UNK         0.3013 
    105 H105       28.7554   28.2663   -1.0566 H         1 UNK         0.3121 
    106 H106       29.9326   30.8658   -1.2062 H         1 UNK         0.0774 
    107 H107       31.9977   30.3815    0.1404 H         1 UNK         0.0815 
    108 H108       31.6679   28.6519    0.0296 H         1 UNK         0.0815 
    109 H109       32.0789   29.5749   -1.4097 H         1 UNK         0.0815 
    110 H110       30.8269   29.5523    1.7225 H         1 UNK         0.2987 
    111 H111       28.4234   28.9013    3.0280 H         1 UNK         0.0949 
    112 H112       29.4018   31.7814    3.5098 H         1 UNK         0.0806 
    113 H113       27.8029   31.3028    2.9453 H         1 UNK         0.0806 
    114 H114       28.3051   30.9201    4.5804 H         1 UNK         0.0806 
    115 H115       29.6294   27.2204    3.8810 H         1 UNK         0.3010 
    116 H116       32.3295   27.3228    4.6035 H         1 UNK         0.0829 
    117 H117       31.1973   25.2414    4.0823 H         1 UNK         0.0813 
    118 H118       31.8660   25.1123    5.6982 H         1 UNK         0.0813 
    119 H119       30.1386   25.3854    5.4900 H         1 UNK         0.0813 
    120 H120       29.6232   28.3529    6.5396 H         1 UNK         0.3038 
    121 H121       30.8958   28.3967    9.1065 H         1 UNK         0.0769 
    122 H122       28.6474   30.1422    7.9552 H         1 UNK         0.0811 
    123 H123       29.0771   30.0232    9.6555 H         1 UNK         0.0811 
    124 H124       28.4344   28.6192    8.8214 H         1 UNK         0.0811 
    125 H125       31.2919   30.4137    6.2541 H         1 UNK         0.3204 
    126 H126       32.8148   32.4782    7.7806 H         1 UNK         0.0748 
    127 H127       31.0114   33.3759    6.3368 H         1 UNK         0.0771 
    128 H128       32.5891   33.8252    5.7094 H         1 UNK         0.0771 
    129 H129       31.6732   32.5400    4.9353 H         1 UNK         0.0771 
    130 H130       32.9762   30.4148    4.7837 H         1 UNK         0.2980 
    131 H131       35.8040   31.0244    4.5183 H         1 UNK         0.0545 
    132 H132       34.3075   28.4796    6.3760 H         1 UNK         0.3459 
    133 H133       35.7604   27.5245    6.4498 H         1 UNK         0.3459 
    134 H134       34.4896   30.9960    2.5129 H         1 UNK         0.0616 
    135 H135       35.7602   29.8223    2.4102 H         1 UNK         0.0616 
    136 H136       35.1652   27.0252    2.8397 H         1 UNK         0.0634 
    137 H137       35.3544   27.7354    1.2518 H         1 UNK         0.0634 
@<TRIPOS>BOND
     1    1    2 1    
     2    1   72 1    
     3    1   73 1    
     4    1   74 1    
     5    2    3 2    
     6    2    4 am   BACKBONE|DICT|INTERRES
     7    4    5 1    
     8    4   75 1    
     9    5    6 1    
    10    5   35 1    
    11    5   76 1    
    12    6    7 1    
    13    6   77 1    
    14    6   78 1    
    15    7    8 1    
    16    8    9 1    
    17    8   79 1    
    18    8   80 1    
    19    9   10 ar   
    20    9   14 ar   
    21   10   11 ar   
    22   10   81 1    
    23   11   12 ar   
    24   11   71 1    
    25   12   13 ar   
    26   12   82 1    
    27   13   14 ar   
    28   13   15 1    
    29   14   83 1    
    30   15   16 1    
    31   15   84 1    
    32   15   85 1    
    33   16   17 1    
    34   17   18 1    
    35   17   86 1    
    36   17   87 1    
    37   18   19 1    
    38   18   37 1    
    39   18   88 1    
    40   19   20 am   BACKBONE|DICT|INTERRES
    41   19   89 1    
    42   20   21 2    
    43   20   22 1    
    44   22   23 1    
    45   22   24 1    
    46   22   90 1    
    47   23   91 1    
    48   23   92 1    
    49   23   93 1    
    50   24   25 am   BACKBONE|DICT|INTERRES
    51   24   94 1    
    52   25   26 2    
    53   25   27 1    
    54   27   28 1    
    55   27   29 1    
    56   27   95 1    
    57   28   96 1    
    58   28   97 1    
    59   28   98 1    
    60   29   30 am   BACKBONE|DICT|INTERRES
    61   29   99 1    
    62   30   31 2    
    63   30   32 1    
    64   32   33 1    
    65   32   34 1    
    66   32  100 1    
    67   33  101 1    
    68   33  102 1    
    69   33  103 1    
    70   34   35 am   BACKBONE|DICT|INTERRES
    71   34  104 1    
    72   35   36 2    
    73   37   38 2    
    74   37   39 am   BACKBONE|DICT|INTERRES
    75   39   40 1    
    76   39  105 1    
    77   40   41 1    
    78   40   42 1    
    79   40  106 1    
    80   41  107 1    
    81   41  108 1    
    82   41  109 1    
    83   42   43 2    
    84   42   44 am   BACKBONE|DICT|INTERRES
    85   44   45 1    
    86   44  110 1    
    87   45   46 1    
    88   45   47 1    
    89   45  111 1    
    90   46  112 1    
    91   46  113 1    
    92   46  114 1    
    93   47   48 2    
    94   47   49 am   BACKBONE|DICT|INTERRES
    95   49   50 1    
    96   49  115 1    
    97   50   51 1    
    98   50   52 1    
    99   50  116 1    
   100   51  117 1    
   101   51  118 1    
   102   51  119 1    
   103   52   53 2    
   104   52   54 am   BACKBONE|DICT|INTERRES
   105   54   55 1    
   106   54  120 1    
   107   55   56 1    
   108   55   57 1    
   109   55  121 1    
   110   56  122 1    
   111   56  123 1    
   112   56  124 1    
   113   57   58 2    
   114   57   59 am   BACKBONE|DICT|INTERRES
   115   59   60 1    
   116   59  125 1    
   117   60   61 1    
   118   60   62 1    
   119   60  126 1    
   120   61  127 1    
   121   61  128 1    
   122   61  129 1    
   123   62   63 2    
   124   62   64 am   BACKBONE|DICT|INTERRES
   125   64   65 1    
   126   64  130 1    
   127   65   66 1    
   128   65   69 1    
   129   65  131 1    
   130   66   67 am   BACKBONE|DICT|INTERRES
   131   66   68 2    
   132   67  132 1    
   133   67  133 1    
   134   69   70 1    
   135   69  134 1    
   136   69  135 1    
   137   70   71 1    
   138   71  136 1    
   139   71  137 1    
@<TRIPOS>SUBSTRUCTURE
     1 UNK         1 GROUP             0       ****    0 ROOT    
