@<TRIPOS>MOLECULE
3R136
137   139    1
SMALL
USER_CHARGES


@<TRIPOS>ATOM
      1 CA         27.5273   20.2438   -1.9589 C.3       0 UNK        -0.1979 
      2 C          28.1257   19.8405   -0.6129 C.2       0 UNK         0.4864 
      3 O          27.9347   18.7019   -0.1890 O.2       0 UNK        -0.5359 
      4 N          28.8575   20.7163    0.0931 N.am      1 UNK        -0.4318 
      5 CA         29.1477   22.1184   -0.2416 C.3       1 UNK         0.0824 
      6 C6         30.2916   22.6822    0.6327 C.3       12 UNK        -0.0944 
      7 S7         31.8931   21.9098    0.2162 S.3       12 UNK        -0.2672 
      8 C8         32.9056   22.2790    1.6895 C.3       12 UNK         0.0333 
      9 C9         32.7951   23.7345    2.1244 C.ar      12 UNK        -0.0807 
     10 C10        33.1497   24.7664    1.2481 C.ar      12 UNK        -0.0894 
     11 C11        32.9650   26.1013    1.6167 C.ar      12 UNK        -0.0804 
     12 C12        32.4492   26.3990    2.8802 C.ar      12 UNK        -0.0824 
     13 C13        32.1058   25.3788    3.7721 C.ar      12 UNK        -0.0762 
     14 C14        32.2930   24.0472    3.3916 C.ar      12 UNK        -0.0782 
     15 C15        31.5101   25.7236    5.1329 C.3       12 UNK         0.0230 
     16 S16        29.8704   24.9670    5.4303 S.3       12 UNK        -0.2608 
     17 C17        28.9432   25.2210    3.8734 C.3       12 UNK        -0.0989 
     18 CA         28.9378   26.6721    3.3317 C.3       5 UNK         0.0716 
     19 N          28.7219   26.6928    1.8830 N.am      5 UNK        -0.4135 
     20 C          29.2165   27.6166    1.0470 C.2       4 UNK         0.5031 
     21 O          29.9326   28.5491    1.4034 O.2       4 UNK        -0.5229 
     22 CA         28.8162   27.5070   -0.4354 C.3       4 UNK         0.0329 
     23 CB         29.8297   26.6578   -1.2182 C.3       4 UNK        -0.2001 
     24 N          27.4687   26.9585   -0.6099 N.am      4 UNK        -0.4303 
     25 C          26.3533   27.6328   -0.2910 C.2       3 UNK         0.5044 
     26 O          26.3572   28.7993    0.1012 O.2       3 UNK        -0.5152 
     27 CA         25.0102   26.8840   -0.3758 C.3       3 UNK         0.0319 
     28 CB         24.3251   27.1682   -1.7215 C.3       3 UNK        -0.2001 
     29 N          25.0995   25.4345   -0.1777 N.am      3 UNK        -0.4354 
     30 C          25.6073   24.8096    0.8947 C.2       2 UNK         0.4964 
     31 O          26.0980   25.3972    1.8597 O.2       2 UNK        -0.5047 
     32 CA         25.6111   23.2679    0.8713 C.3       2 UNK         0.0288 
     33 CB         24.6796   22.6604   -0.2027 C.3       2 UNK        -0.2113 
     34 N          26.9572   22.6941    0.7321 N.am      2 UNK        -0.4145 
     35 C          27.8985   23.0222   -0.1695 C.2       1 UNK         0.5006 
     36 O          27.8008   23.9634   -0.9589 O.2       1 UNK        -0.5103 
     37 C          27.9398   27.5827    4.0710 C.2       5 UNK         0.5055 
     38 O          28.2727   28.1037    5.1359 O.2       5 UNK        -0.5220 
     39 N          26.7642   27.8332    3.4731 N.am      6 UNK        -0.4450 
     40 CA         25.8141   28.8622    3.9150 C.3       6 UNK         0.0367 
     41 CB         24.5015   28.7320    3.1274 C.3       6 UNK        -0.1929 
     42 C          26.3806   30.2941    3.8042 C.2       6 UNK         0.5070 
     43 O          25.9333   31.1767    4.5354 O.2       6 UNK        -0.5237 
     44 N          27.3890   30.4865    2.9408 N.am      7 UNK        -0.4739 
     45 CA         28.2049   31.6996    2.8279 C.3       7 UNK         0.0276 
     46 CB         28.6388   31.8668    1.3612 C.3       7 UNK        -0.1927 
     47 C          29.4154   31.7019    3.7919 C.2       7 UNK         0.5013 
     48 O          30.3509   32.4772    3.5778 O.2       7 UNK        -0.5193 
     49 N          29.3673   30.8520    4.8313 N.am      8 UNK        -0.4253 
     50 CA         30.3504   30.6265    5.8971 C.3       8 UNK         0.0242 
     51 CB         30.6776   31.9396    6.6427 C.3       8 UNK        -0.2000 
     52 C          31.6187   29.9096    5.4056 C.2       8 UNK         0.4948 
     53 O          31.7997   29.6936    4.2075 O.2       8 UNK        -0.5275 
     54 N          32.5104   29.5749    6.3498 N.am      9 UNK        -0.4246 
     55 CA         33.8202   28.9561    6.0944 C.3       9 UNK         0.0261 
     56 CB         34.4585   28.5573    7.4349 C.3       9 UNK        -0.1959 
     57 C          34.7859   29.8333    5.2700 C.2       9 UNK         0.5033 
     58 O          35.7675   29.3149    4.7376 O.2       9 UNK        -0.5390 
     59 N          34.4811   31.1341    5.1616 N.am      10 UNK        -0.4215 
     60 CA         35.1146   32.0821    4.2455 C.3       10 UNK         0.0240 
     61 CB         34.7403   33.5103    4.6764 C.3       10 UNK        -0.1982 
     62 C          34.7376   31.8524    2.7671 C.2       10 UNK         0.4970 
     63 O          35.4346   32.3797    1.8990 O.2       10 UNK        -0.4916 
     64 N          33.6632   31.0915    2.5039 N.am      11 UNK        -0.4279 
     65 CA         33.1450   30.7525    1.1694 C.3       11 UNK         0.1003 
     66 C          32.6099   31.9889    0.3888 C.2       11 UNK         0.5709 
     67 N          31.9501   32.9299    1.0541 N.am      11 UNK        -0.7358 
     68 O          32.7827   32.1043   -0.8228 O.2       11 UNK        -0.4999 
     69 C69        34.1208   29.8615    0.3410 C.3       12 UNK        -0.0954 
     70 S70        34.5788   28.3232    1.2106 S.3       12 UNK        -0.2268 
     71 C71        33.2498   27.2261    0.6338 C.3       12 UNK         0.0203 
     72 H72        27.1795   19.3623   -2.4971 H         1 UNK         0.0888 
     73 H73        26.6724   20.9041   -1.8204 H         1 UNK         0.0888 
     74 H74        28.2598   20.7414   -2.5928 H         1 UNK         0.0888 
     75 H75        29.2715   20.3937    0.9560 H         1 UNK         0.3017 
     76 H76        29.4870   22.1535   -1.2785 H         1 UNK         0.0873 
     77 H77        30.0791   22.5348    1.6933 H         1 UNK         0.0745 
     78 H78        30.4025   23.7583    0.4885 H         1 UNK         0.0745 
     79 H79        33.9489   22.0470    1.4718 H         1 UNK         0.0705 
     80 H80        32.6025   21.6088    2.4954 H         1 UNK         0.0705 
     81 H81        33.5272   24.5249    0.2638 H         1 UNK         0.1334 
     82 H82        32.2945   27.4340    3.1526 H         1 UNK         0.1417 
     83 H83        32.0124   23.2560    4.0737 H         1 UNK         0.1562 
     84 H84        31.4205   26.8037    5.2556 H         1 UNK         0.0748 
     85 H85        32.1960   25.3902    5.9127 H         1 UNK         0.0748 
     86 H86        27.9245   24.8502    4.0051 H         1 UNK         0.0940 
     87 H87        29.3950   24.5557    3.1363 H         1 UNK         0.0940 
     88 H88        29.9133   27.1191    3.5103 H         1 UNK         0.0703 
     89 H89        28.0684   26.0082    1.5233 H         1 UNK         0.3081 
     90 H90        28.8288   28.5150   -0.8562 H         1 UNK         0.0719 
     91 H91        29.5421   26.5607   -2.2652 H         1 UNK         0.0809 
     92 H92        30.8185   27.1155   -1.1982 H         1 UNK         0.0809 
     93 H93        29.9265   25.6550   -0.8042 H         1 UNK         0.0809 
     94 H94        27.3978   25.9897   -0.9068 H         1 UNK         0.2990 
     95 H95        24.3713   27.2748    0.4177 H         1 UNK         0.0690 
     96 H96        24.8974   26.7657   -2.5584 H         1 UNK         0.0788 
     97 H97        24.2175   28.2415   -1.8862 H         1 UNK         0.0788 
     98 H98        23.3248   26.7361   -1.7582 H         1 UNK         0.0788 
     99 H99        24.7539   24.8583   -0.9316 H         1 UNK         0.2993 
    100 H100       25.2372   22.9561    1.8479 H         1 UNK         0.0949 
    101 H101       25.0236   22.8704   -1.2163 H         1 UNK         0.0767 
    102 H102       24.6220   21.5768   -0.0975 H         1 UNK         0.0767 
    103 H103       23.6612   23.0403   -0.1070 H         1 UNK         0.0767 
    104 H104       27.1616   21.9227    1.3520 H         1 UNK         0.3013 
    105 H105       26.5204   27.3004    2.6465 H         1 UNK         0.3121 
    106 H106       25.5967   28.6764    4.9690 H         1 UNK         0.0774 
    107 H107       23.7371   29.3901    3.5425 H         1 UNK         0.0815 
    108 H108       24.6284   29.0104    2.0819 H         1 UNK         0.0815 
    109 H109       24.1095   27.7154    3.1644 H         1 UNK         0.0815 
    110 H110       27.6830   29.7042    2.3716 H         1 UNK         0.2987 
    111 H111       27.5911   32.5630    3.0932 H         1 UNK         0.0949 
    112 H112       29.3647   31.1091    1.0658 H         1 UNK         0.0806 
    113 H113       27.7884   31.8001    0.6823 H         1 UNK         0.0806 
    114 H114       29.1015   32.8410    1.2013 H         1 UNK         0.0806 
    115 H115       28.5950   30.1972    4.8482 H         1 UNK         0.3010 
    116 H116       29.8649   29.9496    6.6019 H         1 UNK         0.0829 
    117 H117       31.2418   31.7512    7.5564 H         1 UNK         0.0813 
    118 H118       31.2703   32.6209    6.0314 H         1 UNK         0.0813 
    119 H119       29.7676   32.4635    6.9357 H         1 UNK         0.0813 
    120 H120       32.2907   29.7727    7.3160 H         1 UNK         0.3038 
    121 H121       33.6490   28.0472    5.5139 H         1 UNK         0.0769 
    122 H122       35.4193   28.0645    7.2785 H         1 UNK         0.0811 
    123 H123       33.8264   27.8596    7.9846 H         1 UNK         0.0811 
    124 H124       34.6378   29.4249    8.0712 H         1 UNK         0.0811 
    125 H125       33.6663   31.4642    5.6562 H         1 UNK         0.3204 
    126 H126       36.1974   31.9676    4.3292 H         1 UNK         0.0748 
    127 H127       35.2256   34.2504    4.0383 H         1 UNK         0.0771 
    128 H128       33.6646   33.6821    4.6130 H         1 UNK         0.0771 
    129 H129       35.0549   33.7128    5.7004 H         1 UNK         0.0771 
    130 H130       33.1247   30.6958    3.2693 H         1 UNK         0.2980 
    131 H131       32.2546   30.1512    1.3563 H         1 UNK         0.0545 
    132 H132       31.7132   32.8047    2.0318 H         1 UNK         0.3459 
    133 H133       31.6099   33.7353    0.5551 H         1 UNK         0.3459 
    134 H134       33.6780   29.5958   -0.6205 H         1 UNK         0.0616 
    135 H135       35.0356   30.4078    0.1076 H         1 UNK         0.0616 
    136 H136       33.5107   26.8359   -0.3510 H         1 UNK         0.0634 
    137 H137       32.3367   27.8064    0.5064 H         1 UNK         0.0634 
@<TRIPOS>BOND
     1    1    2 1    
     2    1   72 1    
     3    1   73 1    
     4    1   74 1    
     5    2    3 2    
     6    2    4 am   BACKBONE|DICT|INTERRES
     7    4    5 1    
     8    4   75 1    
     9    5    6 1    
    10    5   35 1    
    11    5   76 1    
    12    6    7 1    
    13    6   77 1    
    14    6   78 1    
    15    7    8 1    
    16    8    9 1    
    17    8   79 1    
    18    8   80 1    
    19    9   10 ar   
    20    9   14 ar   
    21   10   11 ar   
    22   10   81 1    
    23   11   12 ar   
    24   11   71 1    
    25   12   13 ar   
    26   12   82 1    
    27   13   14 ar   
    28   13   15 1    
    29   14   83 1    
    30   15   16 1    
    31   15   84 1    
    32   15   85 1    
    33   16   17 1    
    34   17   18 1    
    35   17   86 1    
    36   17   87 1    
    37   18   19 1    
    38   18   37 1    
    39   18   88 1    
    40   19   20 am   BACKBONE|DICT|INTERRES
    41   19   89 1    
    42   20   21 2    
    43   20   22 1    
    44   22   23 1    
    45   22   24 1    
    46   22   90 1    
    47   23   91 1    
    48   23   92 1    
    49   23   93 1    
    50   24   25 am   BACKBONE|DICT|INTERRES
    51   24   94 1    
    52   25   26 2    
    53   25   27 1    
    54   27   28 1    
    55   27   29 1    
    56   27   95 1    
    57   28   96 1    
    58   28   97 1    
    59   28   98 1    
    60   29   30 am   BACKBONE|DICT|INTERRES
    61   29   99 1    
    62   30   31 2    
    63   30   32 1    
    64   32   33 1    
    65   32   34 1    
    66   32  100 1    
    67   33  101 1    
    68   33  102 1    
    69   33  103 1    
    70   34   35 am   BACKBONE|DICT|INTERRES
    71   34  104 1    
    72   35   36 2    
    73   37   38 2    
    74   37   39 am   BACKBONE|DICT|INTERRES
    75   39   40 1    
    76   39  105 1    
    77   40   41 1    
    78   40   42 1    
    79   40  106 1    
    80   41  107 1    
    81   41  108 1    
    82   41  109 1    
    83   42   43 2    
    84   42   44 am   BACKBONE|DICT|INTERRES
    85   44   45 1    
    86   44  110 1    
    87   45   46 1    
    88   45   47 1    
    89   45  111 1    
    90   46  112 1    
    91   46  113 1    
    92   46  114 1    
    93   47   48 2    
    94   47   49 am   BACKBONE|DICT|INTERRES
    95   49   50 1    
    96   49  115 1    
    97   50   51 1    
    98   50   52 1    
    99   50  116 1    
   100   51  117 1    
   101   51  118 1    
   102   51  119 1    
   103   52   53 2    
   104   52   54 am   BACKBONE|DICT|INTERRES
   105   54   55 1    
   106   54  120 1    
   107   55   56 1    
   108   55   57 1    
   109   55  121 1    
   110   56  122 1    
   111   56  123 1    
   112   56  124 1    
   113   57   58 2    
   114   57   59 am   BACKBONE|DICT|INTERRES
   115   59   60 1    
   116   59  125 1    
   117   60   61 1    
   118   60   62 1    
   119   60  126 1    
   120   61  127 1    
   121   61  128 1    
   122   61  129 1    
   123   62   63 2    
   124   62   64 am   BACKBONE|DICT|INTERRES
   125   64   65 1    
   126   64  130 1    
   127   65   66 1    
   128   65   69 1    
   129   65  131 1    
   130   66   67 am   BACKBONE|DICT|INTERRES
   131   66   68 2    
   132   67  132 1    
   133   67  133 1    
   134   69   70 1    
   135   69  134 1    
   136   69  135 1    
   137   70   71 1    
   138   71  136 1    
   139   71  137 1    
@<TRIPOS>SUBSTRUCTURE
     1 UNK         1 GROUP             0       ****    0 ROOT    
