@<TRIPOS>MOLECULE
3R136
137   139    1
SMALL
USER_CHARGES


@<TRIPOS>ATOM
      1 CA         32.0241   26.6290    0.1907 C.3       0 UNK        -0.1979 
      2 C          30.9420   25.5625    0.2676 C.2       0 UNK         0.4864 
      3 O          29.8255   25.8569    0.6927 O.2       0 UNK        -0.5359 
      4 N          31.2505   24.3229   -0.1341 N.am      1 UNK        -0.4318 
      5 CA         30.3070   23.2023   -0.0685 C.3       1 UNK         0.0824 
      6 C6         31.0227   21.8252   -0.1018 C.3       12 UNK        -0.0944 
      7 S7         30.2725   20.6792    1.1064 S.3       12 UNK        -0.2672 
      8 C8         31.3858   20.8471    2.5436 C.3       12 UNK         0.0333 
      9 C9         31.5230   22.2874    3.0271 C.ar      12 UNK        -0.0807 
     10 C10        32.7021   22.9972    2.7784 C.ar      12 UNK        -0.0894 
     11 C11        32.8451   24.3159    3.2172 C.ar      12 UNK        -0.0804 
     12 C12        31.8046   24.9205    3.9265 C.ar      12 UNK        -0.0824 
     13 C13        30.6117   24.2319    4.1682 C.ar      12 UNK        -0.0762 
     14 C14        30.4794   22.9114    3.7211 C.ar      12 UNK        -0.0782 
     15 C15        29.4751   24.9106    4.9249 C.3       12 UNK         0.0230 
     16 S16        28.4157   25.9246    3.8383 S.3       12 UNK        -0.2608 
     17 C17        29.4629   27.4053    3.6023 C.3       12 UNK        -0.0989 
     18 CA         28.8013   28.5499    2.7956 C.3       5 UNK         0.0716 
     19 N          28.3899   28.1045    1.4643 N.am      5 UNK        -0.4135 
     20 C          27.9388   28.8550    0.4512 C.2       4 UNK         0.5031 
     21 O          27.8387   30.0812    0.4945 O.2       4 UNK        -0.5229 
     22 CA         27.4187   28.0934   -0.7838 C.3       4 UNK         0.0329 
     23 CB         28.5131   27.9373   -1.8505 C.3       4 UNK        -0.2001 
     24 N          26.8529   26.7789   -0.4465 N.am      4 UNK        -0.4303 
     25 C          25.7705   26.6079    0.3291 C.2       3 UNK         0.5044 
     26 O          25.1292   27.5518    0.7940 O.2       3 UNK        -0.5152 
     27 CA         25.3531   25.1757    0.7173 C.3       3 UNK         0.0319 
     28 CB         23.8263   24.9722    0.6151 C.3       3 UNK        -0.2001 
     29 N          26.0778   24.0928    0.0396 N.am      3 UNK        -0.4354 
     30 C          26.0297   23.7381   -1.2545 C.2       2 UNK         0.4964 
     31 O          25.3864   24.3415   -2.1141 O.2       2 UNK        -0.5047 
     32 CA         26.8501   22.4857   -1.6293 C.3       2 UNK         0.0288 
     33 CB         26.9999   22.2793   -3.1529 C.3       2 UNK        -0.2113 
     34 N          28.1499   22.4563   -0.9429 N.am      2 UNK        -0.4145 
     35 C          29.1631   23.3212   -1.1010 C.2       1 UNK         0.5006 
     36 O          29.1992   24.1858   -1.9811 O.2       1 UNK        -0.5103 
     37 C          27.7208   29.2988    3.6084 C.2       5 UNK         0.5055 
     38 O          28.0617   29.9018    4.6269 O.2       5 UNK        -0.5220 
     39 N          26.4586   29.2972    3.1495 N.am      6 UNK        -0.4450 
     40 CA         25.3984   30.1759    3.6512 C.3       6 UNK         0.0367 
     41 CB         24.0487   29.7271    3.0700 C.3       6 UNK        -0.1929 
     42 C          25.6515   31.6665    3.3400 C.2       6 UNK         0.5070 
     43 O          25.1350   32.5201    4.0620 O.2       6 UNK        -0.5237 
     44 N          26.4340   31.9540    2.2886 N.am      7 UNK        -0.4739 
     45 CA         26.9379   33.2836    1.9511 C.3       7 UNK         0.0276 
     46 CB         26.8871   33.4700    0.4204 C.3       7 UNK        -0.1927 
     47 C          28.3436   33.4385    2.5604 C.2       7 UNK         0.5013 
     48 O          28.4565   33.5631    3.7811 O.2       7 UNK        -0.5193 
     49 N          29.3906   33.4264    1.7236 N.am      8 UNK        -0.4253 
     50 CA         30.7901   33.4187    2.1520 C.3       8 UNK         0.0242 
     51 CB         31.6843   33.8915    0.9927 C.3       8 UNK        -0.2000 
     52 C          31.1710   32.0022    2.6068 C.2       8 UNK         0.4948 
     53 O          31.1446   31.0866    1.7839 O.2       8 UNK        -0.5275 
     54 N          31.4883   31.8493    3.9004 N.am      9 UNK        -0.4246 
     55 CA         31.7039   30.5630    4.5736 C.3       9 UNK         0.0261 
     56 CB         31.9283   30.7976    6.0760 C.3       9 UNK        -0.1959 
     57 C          32.8385   29.7043    3.9928 C.2       9 UNK         0.5033 
     58 O          32.6924   28.4824    3.9348 O.2       9 UNK        -0.5390 
     59 N          33.9480   30.3536    3.6074 N.am      10 UNK        -0.4215 
     60 CA         35.1951   29.8051    3.0478 C.3       10 UNK         0.0240 
     61 CB         34.9471   29.1160    1.6912 C.3       10 UNK        -0.1982 
     62 C          35.9836   28.8903    4.0066 C.2       10 UNK         0.4970 
     63 O          37.1748   29.1212    4.2163 O.2       10 UNK        -0.4916 
     64 N          35.3076   27.8900    4.5775 N.am      11 UNK        -0.4279 
     65 CA         35.8265   26.9523    5.5840 C.3       11 UNK         0.1003 
     66 C          35.8007   27.5130    7.0367 C.2       11 UNK         0.5709 
     67 N          35.2500   28.6949    7.2908 N.am      11 UNK        -0.7358 
     68 O          36.3060   26.8682    7.9525 O.2       11 UNK        -0.4999 
     69 C69        35.1045   25.5804    5.4921 C.3       12 UNK        -0.0954 
     70 S70        35.5062   24.6852    3.9540 S.3       12 UNK        -0.2268 
     71 C71        34.1019   25.1018    2.8758 C.3       12 UNK         0.0203 
     72 H72        32.9873   26.2127   -0.1029 H         1 UNK         0.0888 
     73 H73        31.7458   27.3951   -0.5321 H         1 UNK         0.0888 
     74 H74        32.1416   27.1075    1.1630 H         1 UNK         0.0888 
     75 H75        32.1604   24.1256   -0.5229 H         1 UNK         0.3017 
     76 H76        29.8208   23.3058    0.9046 H         1 UNK         0.0873 
     77 H77        30.9921   21.3733   -1.0953 H         1 UNK         0.0745 
     78 H78        32.0829   21.9240    0.1356 H         1 UNK         0.0745 
     79 H79        31.0040   20.2295    3.3578 H         1 UNK         0.0705 
     80 H80        32.3620   20.4343    2.2839 H         1 UNK         0.0705 
     81 H81        33.5090   22.5286    2.2317 H         1 UNK         0.1334 
     82 H82        31.9171   25.9382    4.2732 H         1 UNK         0.1417 
     83 H83        29.5622   22.3691    3.9066 H         1 UNK         0.1562 
     84 H84        29.8756   25.5291    5.7295 H         1 UNK         0.0748 
     85 H85        28.8520   24.1570    5.4087 H         1 UNK         0.0748 
     86 H86        30.3647   27.1000    3.0727 H         1 UNK         0.0940 
     87 H87        29.8023   27.7623    4.5763 H         1 UNK         0.0940 
     88 H88        29.5772   29.2905    2.6127 H         1 UNK         0.0703 
     89 H89        28.5484   27.1159    1.2801 H         1 UNK         0.3081 
     90 H90        26.6158   28.6949   -1.2154 H         1 UNK         0.0719 
     91 H91        29.3272   27.3000   -1.5087 H         1 UNK         0.0809 
     92 H92        28.1128   27.5010   -2.7657 H         1 UNK         0.0809 
     93 H93        28.9431   28.9049   -2.1126 H         1 UNK         0.0809 
     94 H94        27.3553   25.9641   -0.7713 H         1 UNK         0.2990 
     95 H95        25.6186   25.0809    1.7714 H         1 UNK         0.0690 
     96 H96        23.5362   23.9715    0.9350 H         1 UNK         0.0788 
     97 H97        23.4645   25.1186   -0.4029 H         1 UNK         0.0788 
     98 H98        23.2925   25.6796    1.2512 H         1 UNK         0.0788 
     99 H99        26.6638   23.5370    0.6465 H         1 UNK         0.2993 
    100 H100       26.2847   21.6352   -1.2447 H         1 UNK         0.0949 
    101 H101       27.5919   21.3919   -3.3768 H         1 UNK         0.0767 
    102 H102       26.0252   22.1452   -3.6235 H         1 UNK         0.0767 
    103 H103       27.4755   23.1321   -3.6380 H         1 UNK         0.0767 
    104 H104       28.2460   21.7549   -0.2193 H         1 UNK         0.3013 
    105 H105       26.2414   28.7581    2.3194 H         1 UNK         0.3121 
    106 H106       25.3571   30.0680    4.7371 H         1 UNK         0.0774 
    107 H107       23.2323   30.3313    3.4680 H         1 UNK         0.0815 
    108 H108       24.0264   29.8239    1.9836 H         1 UNK         0.0815 
    109 H109       23.8341   28.6874    3.3176 H         1 UNK         0.0815 
    110 H110       26.8380   31.1867    1.7572 H         1 UNK         0.2987 
    111 H111       26.3073   34.0535    2.4014 H         1 UNK         0.0949 
    112 H112       27.4541   32.7052   -0.1116 H         1 UNK         0.0806 
    113 H113       25.8595   33.4213    0.0592 H         1 UNK         0.0806 
    114 H114       27.2802   34.4448    0.1280 H         1 UNK         0.0806 
    115 H115       29.2186   33.2644    0.7419 H         1 UNK         0.3010 
    116 H116       30.9144   34.1166    2.9833 H         1 UNK         0.0829 
    117 H117       31.4295   34.9054    0.6836 H         1 UNK         0.0813 
    118 H118       32.7342   33.8970    1.2886 H         1 UNK         0.0813 
    119 H119       31.5958   33.2427    0.1199 H         1 UNK         0.0813 
    120 H120       31.4642   32.6649    4.4963 H         1 UNK         0.3038 
    121 H121       30.7837   29.9902    4.4678 H         1 UNK         0.0769 
    122 H122       32.8060   31.4168    6.2656 H         1 UNK         0.0811 
    123 H123       32.0746   29.8525    6.6017 H         1 UNK         0.0811 
    124 H124       31.0670   31.2861    6.5324 H         1 UNK         0.0811 
    125 H125       33.9456   31.3568    3.7300 H         1 UNK         0.3204 
    126 H126       35.8323   30.6700    2.8556 H         1 UNK         0.0748 
    127 H127       35.8846   28.7779    1.2478 H         1 UNK         0.0771 
    128 H128       34.3005   28.2445    1.7849 H         1 UNK         0.0771 
    129 H129       34.4798   29.7995    0.9821 H         1 UNK         0.0771 
    130 H130       34.3128   27.8298    4.3694 H         1 UNK         0.2980 
    131 H131       36.8823   26.7808    5.3663 H         1 UNK         0.0545 
    132 H132       34.8489   29.2410    6.5477 H         1 UNK         0.3459 
    133 H133       35.2496   29.0444    8.2360 H         1 UNK         0.3459 
    134 H134       35.4072   24.9290    6.3139 H         1 UNK         0.0616 
    135 H135       34.0250   25.7023    5.5883 H         1 UNK         0.0616 
    136 H136       34.3852   24.8919    1.8436 H         1 UNK         0.0634 
    137 H137       33.9071   26.1727    2.9204 H         1 UNK         0.0634 
@<TRIPOS>BOND
     1    1    2 1    
     2    1   72 1    
     3    1   73 1    
     4    1   74 1    
     5    2    3 2    
     6    2    4 am   BACKBONE|DICT|INTERRES
     7    4    5 1    
     8    4   75 1    
     9    5    6 1    
    10    5   35 1    
    11    5   76 1    
    12    6    7 1    
    13    6   77 1    
    14    6   78 1    
    15    7    8 1    
    16    8    9 1    
    17    8   79 1    
    18    8   80 1    
    19    9   10 ar   
    20    9   14 ar   
    21   10   11 ar   
    22   10   81 1    
    23   11   12 ar   
    24   11   71 1    
    25   12   13 ar   
    26   12   82 1    
    27   13   14 ar   
    28   13   15 1    
    29   14   83 1    
    30   15   16 1    
    31   15   84 1    
    32   15   85 1    
    33   16   17 1    
    34   17   18 1    
    35   17   86 1    
    36   17   87 1    
    37   18   19 1    
    38   18   37 1    
    39   18   88 1    
    40   19   20 am   BACKBONE|DICT|INTERRES
    41   19   89 1    
    42   20   21 2    
    43   20   22 1    
    44   22   23 1    
    45   22   24 1    
    46   22   90 1    
    47   23   91 1    
    48   23   92 1    
    49   23   93 1    
    50   24   25 am   BACKBONE|DICT|INTERRES
    51   24   94 1    
    52   25   26 2    
    53   25   27 1    
    54   27   28 1    
    55   27   29 1    
    56   27   95 1    
    57   28   96 1    
    58   28   97 1    
    59   28   98 1    
    60   29   30 am   BACKBONE|DICT|INTERRES
    61   29   99 1    
    62   30   31 2    
    63   30   32 1    
    64   32   33 1    
    65   32   34 1    
    66   32  100 1    
    67   33  101 1    
    68   33  102 1    
    69   33  103 1    
    70   34   35 am   BACKBONE|DICT|INTERRES
    71   34  104 1    
    72   35   36 2    
    73   37   38 2    
    74   37   39 am   BACKBONE|DICT|INTERRES
    75   39   40 1    
    76   39  105 1    
    77   40   41 1    
    78   40   42 1    
    79   40  106 1    
    80   41  107 1    
    81   41  108 1    
    82   41  109 1    
    83   42   43 2    
    84   42   44 am   BACKBONE|DICT|INTERRES
    85   44   45 1    
    86   44  110 1    
    87   45   46 1    
    88   45   47 1    
    89   45  111 1    
    90   46  112 1    
    91   46  113 1    
    92   46  114 1    
    93   47   48 2    
    94   47   49 am   BACKBONE|DICT|INTERRES
    95   49   50 1    
    96   49  115 1    
    97   50   51 1    
    98   50   52 1    
    99   50  116 1    
   100   51  117 1    
   101   51  118 1    
   102   51  119 1    
   103   52   53 2    
   104   52   54 am   BACKBONE|DICT|INTERRES
   105   54   55 1    
   106   54  120 1    
   107   55   56 1    
   108   55   57 1    
   109   55  121 1    
   110   56  122 1    
   111   56  123 1    
   112   56  124 1    
   113   57   58 2    
   114   57   59 am   BACKBONE|DICT|INTERRES
   115   59   60 1    
   116   59  125 1    
   117   60   61 1    
   118   60   62 1    
   119   60  126 1    
   120   61  127 1    
   121   61  128 1    
   122   61  129 1    
   123   62   63 2    
   124   62   64 am   BACKBONE|DICT|INTERRES
   125   64   65 1    
   126   64  130 1    
   127   65   66 1    
   128   65   69 1    
   129   65  131 1    
   130   66   67 am   BACKBONE|DICT|INTERRES
   131   66   68 2    
   132   67  132 1    
   133   67  133 1    
   134   69   70 1    
   135   69  134 1    
   136   69  135 1    
   137   70   71 1    
   138   71  136 1    
   139   71  137 1    
@<TRIPOS>SUBSTRUCTURE
     1 UNK         1 GROUP             0       ****    0 ROOT    
