@<TRIPOS>MOLECULE
3R136
137   139    1
SMALL
USER_CHARGES


@<TRIPOS>ATOM
      1 CA         27.4393   18.0760    0.0735 C.3       0 UNK        -0.1979 
      2 C          28.3272   19.2262   -0.3780 C.2       0 UNK         0.4864 
      3 O          28.8819   19.1756   -1.4770 O.2       0 UNK        -0.5359 
      4 N          28.4714   20.2593    0.4627 N.am      1 UNK        -0.4318 
      5 CA         29.2324   21.4765    0.1726 C.3       1 UNK         0.0824 
      6 C6         29.5713   22.2385    1.4767 C.3       12 UNK        -0.0944 
      7 S7         31.0007   23.3572    1.2906 S.3       12 UNK        -0.2672 
      8 C8         30.2334   24.9975    1.4599 C.3       12 UNK         0.0333 
      9 C9         30.0894   25.4363    2.9125 C.ar      12 UNK        -0.0807 
     10 C10        31.0114   26.3278    3.4735 C.ar      12 UNK        -0.0894 
     11 C11        30.8452   26.7889    4.7835 C.ar      12 UNK        -0.0804 
     12 C12        29.7466   26.3600    5.5327 C.ar      12 UNK        -0.0824 
     13 C13        28.8189   25.4701    4.9868 C.ar      12 UNK        -0.0762 
     14 C14        29.0073   24.9988    3.6833 C.ar      12 UNK        -0.0782 
     15 C15        27.6006   25.0457    5.7988 C.3       12 UNK         0.0230 
     16 S16        26.0325   25.2800    4.8954 S.3       12 UNK        -0.2608 
     17 C17        25.9986   27.0874    4.6071 C.3       12 UNK        -0.0989 
     18 CA         26.6923   27.5360    3.2853 C.3       5 UNK         0.0716 
     19 N          26.3497   26.7239    2.1125 N.am      5 UNK        -0.4135 
     20 C          25.1379   26.5436    1.5725 C.2       4 UNK         0.5031 
     21 O          24.1068   27.0614    2.0052 O.2       4 UNK        -0.5229 
     22 CA         25.0898   25.6426    0.3189 C.3       4 UNK         0.0329 
     23 CB         23.8339   25.8976   -0.5409 C.3       4 UNK        -0.2001 
     24 N          26.2985   25.7101   -0.5203 N.am      4 UNK        -0.4303 
     25 C          26.8338   26.8145   -1.0698 C.2       3 UNK         0.5044 
     26 O          26.4261   27.9520   -0.8324 O.2       3 UNK        -0.5152 
     27 CA         28.0511   26.6552   -2.0021 C.3       3 UNK         0.0319 
     28 CB         29.2616   27.4196   -1.4462 C.3       3 UNK        -0.2001 
     29 N          28.4317   25.2639   -2.2642 N.am      3 UNK        -0.4354 
     30 C          27.7893   24.4556   -3.1188 C.2       2 UNK         0.4964 
     31 O          26.8203   24.8075   -3.7922 O.2       2 UNK        -0.5047 
     32 CA         28.2972   23.0081   -3.2458 C.3       2 UNK         0.0288 
     33 CB         29.2290   22.8771   -4.4620 C.3       2 UNK        -0.2113 
     34 N          28.9738   22.4554   -2.0646 N.am      2 UNK        -0.4145 
     35 C          28.4453   22.3390   -0.8375 C.2       1 UNK         0.5006 
     36 O          27.3741   22.8495   -0.4971 O.2       1 UNK        -0.5103 
     37 C          26.5884   29.0591    3.0451 C.2       5 UNK         0.5055 
     38 O          26.6664   29.8186    4.0125 O.2       5 UNK        -0.5220 
     39 N          26.4618   29.5007    1.7821 N.am      6 UNK        -0.4450 
     40 CA         26.4939   30.9197    1.4144 C.3       6 UNK         0.0367 
     41 CB         25.8666   31.1140    0.0251 C.3       6 UNK        -0.1929 
     42 C          27.9222   31.4884    1.4456 C.2       6 UNK         0.5070 
     43 O          28.1135   32.6358    1.8500 O.2       6 UNK        -0.5237 
     44 N          28.9080   30.6736    1.0437 N.am      7 UNK        -0.4739 
     45 CA         30.3307   31.0219    1.0131 C.3       7 UNK         0.0276 
     46 CB         31.0435   30.1681   -0.0519 C.3       7 UNK        -0.1927 
     47 C          30.9829   30.8835    2.3999 C.2       7 UNK         0.5013 
     48 O          31.9365   30.1203    2.5590 O.2       7 UNK        -0.5193 
     49 N          30.4785   31.6431    3.3822 N.am      8 UNK        -0.4253 
     50 CA         30.9723   31.6780    4.7663 C.3       8 UNK         0.0242 
     51 CB         30.1178   32.6524    5.5905 C.3       8 UNK        -0.2000 
     52 C          32.4670   32.0311    4.8877 C.2       8 UNK         0.4948 
     53 O          33.1417   31.5253    5.7855 O.2       8 UNK        -0.5275 
     54 N          32.9716   32.8336    3.9396 N.am      9 UNK        -0.4246 
     55 CA         34.3827   33.1921    3.7783 C.3       9 UNK         0.0261 
     56 CB         34.5077   34.2330    2.6537 C.3       9 UNK        -0.1959 
     57 C          35.3237   31.9995    3.5124 C.2       9 UNK         0.5033 
     58 O          36.5242   32.1352    3.7524 O.2       9 UNK        -0.5390 
     59 N          34.7899   30.8583    3.0452 N.am      10 UNK        -0.4215 
     60 CA         35.5431   29.6085    2.9017 C.3       10 UNK         0.0240 
     61 CB         34.7682   28.6356    1.9974 C.3       10 UNK        -0.1982 
     62 C          35.8554   28.9471    4.2568 C.2       10 UNK         0.4970 
     63 O          36.8468   28.2223    4.3510 O.2       10 UNK        -0.4916 
     64 N          35.0169   29.2059    5.2681 N.am      11 UNK        -0.4279 
     65 CA         35.1930   28.7381    6.6481 C.3       11 UNK         0.1003 
     66 C          35.8741   29.8194    7.5259 C.2       11 UNK         0.5709 
     67 N          35.4926   31.0857    7.4041 N.am      11 UNK        -0.7358 
     68 O          36.7601   29.5078    8.3181 O.2       11 UNK        -0.4999 
     69 C69        33.8494   28.2940    7.2780 C.3       12 UNK        -0.0954 
     70 S70        33.0804   26.8977    6.3921 S.3       12 UNK        -0.2268 
     71 C71        31.8340   27.7671    5.3947 C.3       12 UNK         0.0203 
     72 H72        27.0223   18.2474    1.0657 H         1 UNK         0.0888 
     73 H73        26.6122   17.9449   -0.6238 H         1 UNK         0.0888 
     74 H74        28.0116   17.1492    0.1020 H         1 UNK         0.0888 
     75 H75        27.9666   20.2571    1.3375 H         1 UNK         0.3017 
     76 H76        30.1737   21.1653   -0.2869 H         1 UNK         0.0873 
     77 H77        29.8440   21.5291    2.2599 H         1 UNK         0.0745 
     78 H78        28.6966   22.7658    1.8528 H         1 UNK         0.0745 
     79 H79        30.8569   25.7132    0.9224 H         1 UNK         0.0705 
     80 H80        29.2623   25.0065    0.9632 H         1 UNK         0.0705 
     81 H81        31.8518   26.6751    2.8878 H         1 UNK         0.1334 
     82 H82        29.6134   26.7274    6.5413 H         1 UNK         0.1417 
     83 H83        28.2740   24.3275    3.2634 H         1 UNK         0.1562 
     84 H84        27.5474   25.5926    6.7415 H         1 UNK         0.0748 
     85 H85        27.7026   23.9914    6.0591 H         1 UNK         0.0748 
     86 H86        26.4540   27.5855    5.4652 H         1 UNK         0.0940 
     87 H87        24.9526   27.3990    4.6033 H         1 UNK         0.0940 
     88 H88        27.7620   27.3894    3.4191 H         1 UNK         0.0703 
     89 H89        27.1243   26.2546    1.6698 H         1 UNK         0.3081 
     90 H90        25.0352   24.6174    0.6885 H         1 UNK         0.0719 
     91 H91        23.8050   25.2353   -1.4061 H         1 UNK         0.0809 
     92 H92        23.7965   26.9254   -0.9037 H         1 UNK         0.0809 
     93 H93        22.9223   25.7203    0.0312 H         1 UNK         0.0809 
     94 H94        26.7253   24.8132   -0.7322 H         1 UNK         0.2990 
     95 H95        27.7797   27.1181   -2.9534 H         1 UNK         0.0690 
     96 H96        30.1365   27.3090   -2.0872 H         1 UNK         0.0788 
     97 H97        29.5289   27.0883   -0.4444 H         1 UNK         0.0788 
     98 H98        29.0408   28.4856   -1.3879 H         1 UNK         0.0788 
     99 H99        29.2258   24.8969   -1.7608 H         1 UNK         0.2993 
    100 H100       27.4180   22.3854   -3.4248 H         1 UNK         0.0949 
    101 H101       28.7480   23.2517   -5.3671 H         1 UNK         0.0767 
    102 H102       30.1519   23.4425   -4.3255 H         1 UNK         0.0767 
    103 H103       29.4956   21.8365   -4.6486 H         1 UNK         0.0767 
    104 H104       29.8549   21.9942   -2.2421 H         1 UNK         0.3013 
    105 H105       26.3807   28.8343    1.0199 H         1 UNK         0.3121 
    106 H106       25.8938   31.4801    2.1348 H         1 UNK         0.0774 
    107 H107       25.8093   32.1731   -0.2297 H         1 UNK         0.0815 
    108 H108       26.4485   30.6241   -0.7563 H         1 UNK         0.0815 
    109 H109       24.8526   30.7154   -0.0128 H         1 UNK         0.0815 
    110 H110       28.6643   29.7364    0.7608 H         1 UNK         0.2987 
    111 H111       30.4324   32.0678    0.7146 H         1 UNK         0.0949 
    112 H112       31.0051   29.1055    0.1895 H         1 UNK         0.0806 
    113 H113       30.6034   30.3126   -1.0384 H         1 UNK         0.0806 
    114 H114       32.0966   30.4421   -0.1294 H         1 UNK         0.0806 
    115 H115       29.6769   32.2238    3.1574 H         1 UNK         0.3010 
    116 H116       30.8424   30.6771    5.1802 H         1 UNK         0.0829 
    117 H117       29.0691   32.3538    5.5940 H         1 UNK         0.0813 
    118 H118       30.4491   32.6792    6.6297 H         1 UNK         0.0813 
    119 H119       30.1763   33.6701    5.2023 H         1 UNK         0.0813 
    120 H120       32.3340   33.1963    3.2461 H         1 UNK         0.3038 
    121 H121       34.7096   33.6544    4.7121 H         1 UNK         0.0769 
    122 H122       35.5442   34.5496    2.5278 H         1 UNK         0.0811 
    123 H123       33.9238   35.1274    2.8721 H         1 UNK         0.0811 
    124 H124       34.1706   33.8350    1.6957 H         1 UNK         0.0811 
    125 H125       33.7903   30.8041    2.8689 H         1 UNK         0.3204 
    126 H126       36.4942   29.8366    2.4157 H         1 UNK         0.0748 
    127 H127       35.3610   27.7439    1.7892 H         1 UNK         0.0771 
    128 H128       33.8394   28.3036    2.4623 H         1 UNK         0.0771 
    129 H129       34.5194   29.0921    1.0392 H         1 UNK         0.0771 
    130 H130       34.2632   29.8660    5.1273 H         1 UNK         0.2980 
    131 H131       35.8520   27.8675    6.6511 H         1 UNK         0.0545 
    132 H132       34.7128   31.3302    6.8001 H         1 UNK         0.3459 
    133 H133       35.9358   31.7926    7.9681 H         1 UNK         0.3459 
    134 H134       34.0069   27.9705    8.3086 H         1 UNK         0.0616 
    135 H135       33.1495   29.1300    7.3298 H         1 UNK         0.0616 
    136 H136       32.3297   28.3492    4.6170 H         1 UNK         0.0634 
    137 H137       31.2967   28.4786    6.0227 H         1 UNK         0.0634 
@<TRIPOS>BOND
     1    1    2 1    
     2    1   72 1    
     3    1   73 1    
     4    1   74 1    
     5    2    3 2    
     6    2    4 am   BACKBONE|DICT|INTERRES
     7    4    5 1    
     8    4   75 1    
     9    5    6 1    
    10    5   35 1    
    11    5   76 1    
    12    6    7 1    
    13    6   77 1    
    14    6   78 1    
    15    7    8 1    
    16    8    9 1    
    17    8   79 1    
    18    8   80 1    
    19    9   10 ar   
    20    9   14 ar   
    21   10   11 ar   
    22   10   81 1    
    23   11   12 ar   
    24   11   71 1    
    25   12   13 ar   
    26   12   82 1    
    27   13   14 ar   
    28   13   15 1    
    29   14   83 1    
    30   15   16 1    
    31   15   84 1    
    32   15   85 1    
    33   16   17 1    
    34   17   18 1    
    35   17   86 1    
    36   17   87 1    
    37   18   19 1    
    38   18   37 1    
    39   18   88 1    
    40   19   20 am   BACKBONE|DICT|INTERRES
    41   19   89 1    
    42   20   21 2    
    43   20   22 1    
    44   22   23 1    
    45   22   24 1    
    46   22   90 1    
    47   23   91 1    
    48   23   92 1    
    49   23   93 1    
    50   24   25 am   BACKBONE|DICT|INTERRES
    51   24   94 1    
    52   25   26 2    
    53   25   27 1    
    54   27   28 1    
    55   27   29 1    
    56   27   95 1    
    57   28   96 1    
    58   28   97 1    
    59   28   98 1    
    60   29   30 am   BACKBONE|DICT|INTERRES
    61   29   99 1    
    62   30   31 2    
    63   30   32 1    
    64   32   33 1    
    65   32   34 1    
    66   32  100 1    
    67   33  101 1    
    68   33  102 1    
    69   33  103 1    
    70   34   35 am   BACKBONE|DICT|INTERRES
    71   34  104 1    
    72   35   36 2    
    73   37   38 2    
    74   37   39 am   BACKBONE|DICT|INTERRES
    75   39   40 1    
    76   39  105 1    
    77   40   41 1    
    78   40   42 1    
    79   40  106 1    
    80   41  107 1    
    81   41  108 1    
    82   41  109 1    
    83   42   43 2    
    84   42   44 am   BACKBONE|DICT|INTERRES
    85   44   45 1    
    86   44  110 1    
    87   45   46 1    
    88   45   47 1    
    89   45  111 1    
    90   46  112 1    
    91   46  113 1    
    92   46  114 1    
    93   47   48 2    
    94   47   49 am   BACKBONE|DICT|INTERRES
    95   49   50 1    
    96   49  115 1    
    97   50   51 1    
    98   50   52 1    
    99   50  116 1    
   100   51  117 1    
   101   51  118 1    
   102   51  119 1    
   103   52   53 2    
   104   52   54 am   BACKBONE|DICT|INTERRES
   105   54   55 1    
   106   54  120 1    
   107   55   56 1    
   108   55   57 1    
   109   55  121 1    
   110   56  122 1    
   111   56  123 1    
   112   56  124 1    
   113   57   58 2    
   114   57   59 am   BACKBONE|DICT|INTERRES
   115   59   60 1    
   116   59  125 1    
   117   60   61 1    
   118   60   62 1    
   119   60  126 1    
   120   61  127 1    
   121   61  128 1    
   122   61  129 1    
   123   62   63 2    
   124   62   64 am   BACKBONE|DICT|INTERRES
   125   64   65 1    
   126   64  130 1    
   127   65   66 1    
   128   65   69 1    
   129   65  131 1    
   130   66   67 am   BACKBONE|DICT|INTERRES
   131   66   68 2    
   132   67  132 1    
   133   67  133 1    
   134   69   70 1    
   135   69  134 1    
   136   69  135 1    
   137   70   71 1    
   138   71  136 1    
   139   71  137 1    
@<TRIPOS>SUBSTRUCTURE
     1 UNK         1 GROUP             0       ****    0 ROOT    
