@<TRIPOS>MOLECULE
3R136
137   139    1
SMALL
USER_CHARGES


@<TRIPOS>ATOM
      1 CA         30.6105   16.5978   -1.6622 C.3       0 UNK        -0.1979 
      2 C          29.7371   17.7990   -1.9936 C.2       0 UNK         0.4864 
      3 O          28.8254   17.6849   -2.8149 O.2       0 UNK        -0.5359 
      4 N          30.0143   18.9503   -1.3689 N.am      1 UNK        -0.4318 
      5 CA         29.2409   20.1885   -1.4989 C.3       1 UNK         0.0824 
      6 C6         30.0512   21.4231   -1.0262 C.3       12 UNK        -0.0944 
      7 S7         30.7767   21.2599    0.6468 S.3       12 UNK        -0.2672 
      8 C8         29.8877   22.5541    1.5626 C.3       12 UNK         0.0333 
      9 C9         30.6298   23.8847    1.5347 C.ar      12 UNK        -0.0807 
     10 C10        31.3301   24.3134    2.6670 C.ar      12 UNK        -0.0894 
     11 C11        31.9896   25.5453    2.6686 C.ar      12 UNK        -0.0804 
     12 C12        31.9789   26.3353    1.5180 C.ar      12 UNK        -0.0824 
     13 C13        31.2761   25.9259    0.3832 C.ar      12 UNK        -0.0762 
     14 C14        30.5954   24.7040    0.4000 C.ar      12 UNK        -0.0782 
     15 C15        31.2656   26.7987   -0.8634 C.3       12 UNK         0.0230 
     16 S16        29.7389   27.7803   -1.0099 S.3       12 UNK        -0.2608 
     17 C17        29.9109   29.0052    0.3347 C.3       12 UNK        -0.0989 
     18 CA         28.7373   28.9149    1.3416 C.3       5 UNK         0.0716 
     19 N          28.7191   27.6311    2.0441 N.am      5 UNK        -0.4135 
     20 C          27.6419   27.1051    2.6353 C.2       4 UNK         0.5031 
     21 O          26.5240   27.6285    2.6402 O.2       4 UNK        -0.5229 
     22 CA         27.8533   25.7648    3.3566 C.3       4 UNK         0.0329 
     23 CB         27.9132   25.9717    4.8790 C.3       4 UNK        -0.2001 
     24 N          26.8089   24.7884    3.0382 N.am      4 UNK        -0.4303 
     25 C          26.5616   24.2974    1.8166 C.2       3 UNK         0.5044 
     26 O          27.1900   24.6021    0.7992 O.2       3 UNK        -0.5152 
     27 CA         25.4169   23.2859    1.7135 C.3       3 UNK         0.0319 
     28 CB         24.0588   24.0050    1.5996 C.3       3 UNK        -0.2001 
     29 N          25.6435   22.4425    0.5419 N.am      3 UNK        -0.4354 
     30 C          25.0872   21.2451    0.3290 C.2       2 UNK         0.4964 
     31 O          24.3127   20.7000    1.1167 O.2       2 UNK        -0.5047 
     32 CA         25.4347   20.5359   -0.9905 C.3       2 UNK         0.0288 
     33 CB         24.5178   21.0301   -2.1221 C.3       2 UNK        -0.2113 
     34 N          26.8352   20.6778   -1.4030 N.am      2 UNK        -0.4145 
     35 C          27.8660   20.0657   -0.8018 C.2       1 UNK         0.5006 
     36 O          27.7588   19.4095    0.2383 O.2       1 UNK        -0.5103 
     37 C          28.7455   30.0949    2.3368 C.2       5 UNK         0.5055 
     38 O          29.0860   29.9251    3.5114 O.2       5 UNK        -0.5220 
     39 N          28.3612   31.2739    1.8290 N.am      6 UNK        -0.4450 
     40 CA         28.2632   32.5389    2.5620 C.3       6 UNK         0.0367 
     41 CB         27.3354   33.4862    1.7740 C.3       6 UNK        -0.1929 
     42 C          29.6397   33.1697    2.8636 C.2       6 UNK         0.5070 
     43 O          30.6604   32.4791    2.8472 O.2       6 UNK        -0.5237 
     44 N          29.6521   34.4839    3.1303 N.am      7 UNK        -0.4739 
     45 CA         30.7958   35.2976    3.5750 C.3       7 UNK         0.0276 
     46 CB         30.3300   36.7535    3.7405 C.3       7 UNK        -0.1927 
     47 C          32.0707   35.2416    2.7079 C.2       7 UNK         0.5013 
     48 O          33.1377   35.6095    3.1996 O.2       7 UNK        -0.5193 
     49 N          31.9579   34.7656    1.4598 N.am      8 UNK        -0.4253 
     50 CA         33.0887   34.4308    0.5885 C.3       8 UNK         0.0242 
     51 CB         32.5650   34.0938   -0.8170 C.3       8 UNK        -0.2000 
     52 C          33.9485   33.2731    1.1362 C.2       8 UNK         0.4948 
     53 O          35.1625   33.2782    0.9281 O.2       8 UNK        -0.5275 
     54 N          33.3101   32.3229    1.8332 N.am      9 UNK        -0.4246 
     55 CA         33.9582   31.2410    2.5767 C.3       9 UNK         0.0261 
     56 CB         33.2545   29.9114    2.2617 C.3       9 UNK        -0.1959 
     57 C          33.9126   31.5152    4.0874 C.2       9 UNK         0.5033 
     58 O          34.8976   31.2482    4.7761 O.2       9 UNK        -0.5390 
     59 N          32.7705   32.0338    4.5680 N.am      10 UNK        -0.4215 
     60 CA         32.4485   32.3840    5.9576 C.3       10 UNK         0.0240 
     61 CB         33.3497   33.5326    6.4592 C.3       10 UNK        -0.1982 
     62 C          32.4237   31.1805    6.9230 C.2       10 UNK         0.4970 
     63 O          32.5725   31.3697    8.1317 O.2       10 UNK        -0.4916 
     64 N          32.2222   29.9710    6.3853 N.am      11 UNK        -0.4279 
     65 CA         32.1359   28.7160    7.1459 C.3       11 UNK         0.1003 
     66 C          30.7586   28.4602    7.8255 C.2       11 UNK         0.5709 
     67 N          29.7067   29.2021    7.4981 N.am      11 UNK        -0.7358 
     68 O          30.6495   27.5837    8.6798 O.2       11 UNK        -0.4999 
     69 C69        32.6120   27.5083    6.2976 C.3       12 UNK        -0.0954 
     70 S70        31.6441   27.2583    4.7736 S.3       12 UNK        -0.2268 
     71 C71        32.6886   26.0427    3.9206 C.3       12 UNK         0.0203 
     72 H72        30.0011   15.7932   -1.2517 H         1 UNK         0.0888 
     73 H73        31.1006   16.2297   -2.5632 H         1 UNK         0.0888 
     74 H74        31.3823   16.8443   -0.9331 H         1 UNK         0.0888 
     75 H75        30.7504   18.9817   -0.6774 H         1 UNK         0.3017 
     76 H76        29.0462   20.3262   -2.5652 H         1 UNK         0.0873 
     77 H77        30.8786   21.5917   -1.7173 H         1 UNK         0.0745 
     78 H78        29.4363   22.3208   -1.0933 H         1 UNK         0.0745 
     79 H79        29.7566   22.2182    2.5924 H         1 UNK         0.0705 
     80 H80        28.8834   22.6646    1.1580 H         1 UNK         0.0705 
     81 H81        31.3430   23.6983    3.5566 H         1 UNK         0.1334 
     82 H82        32.5059   27.2782    1.5155 H         1 UNK         0.1417 
     83 H83        30.0370   24.3976   -0.4725 H         1 UNK         0.1562 
     84 H84        31.3595   26.1656   -1.7470 H         1 UNK         0.0748 
     85 H85        32.1293   27.4657   -0.8782 H         1 UNK         0.0748 
     86 H86        29.9487   29.9907   -0.1333 H         1 UNK         0.0940 
     87 H87        30.8666   28.8821    0.8419 H         1 UNK         0.0940 
     88 H88        27.8070   28.9899    0.7733 H         1 UNK         0.0703 
     89 H89        29.5999   27.1403    2.0989 H         1 UNK         0.3081 
     90 H90        28.8047   25.3440    3.0344 H         1 UNK         0.0719 
     91 H91        28.6751   26.7063    5.1437 H         1 UNK         0.0809 
     92 H92        26.9639   26.3357    5.2739 H         1 UNK         0.0809 
     93 H93        28.1639   25.0462    5.3973 H         1 UNK         0.0809 
     94 H94        26.2152   24.5036    3.8033 H         1 UNK         0.2990 
     95 H95        25.4278   22.6598    2.6084 H         1 UNK         0.0690 
     96 H96        23.2316   23.2959    1.5659 H         1 UNK         0.0788 
     97 H97        24.0071   24.6223    0.7017 H         1 UNK         0.0788 
     98 H98        23.8866   24.6590    2.4554 H         1 UNK         0.0788 
     99 H99        26.2969   22.8280   -0.1287 H         1 UNK         0.2993 
    100 H100       25.2390   19.4710   -0.8430 H         1 UNK         0.0949 
    101 H101       23.4671   20.9150   -1.8513 H         1 UNK         0.0767 
    102 H102       24.6824   22.0850   -2.3461 H         1 UNK         0.0767 
    103 H103       24.6772   20.4622   -3.0391 H         1 UNK         0.0767 
    104 H104       27.0036   21.2018   -2.2500 H         1 UNK         0.3013 
    105 H105       28.1264   31.3167    0.8480 H         1 UNK         0.3121 
    106 H106       27.7956   32.3307    3.5267 H         1 UNK         0.0774 
    107 H107       27.7922   33.8169    0.8400 H         1 UNK         0.0815 
    108 H108       26.3917   32.9990    1.5269 H         1 UNK         0.0815 
    109 H109       27.0796   34.3754    2.3511 H         1 UNK         0.0815 
    110 H110       28.7668   34.9689    3.0935 H         1 UNK         0.2987 
    111 H111       31.0821   34.9234    4.5597 H         1 UNK         0.0949 
    112 H112       29.5155   36.8325    4.4608 H         1 UNK         0.0806 
    113 H113       31.1404   37.3868    4.1049 H         1 UNK         0.0806 
    114 H114       29.9869   37.1761    2.7952 H         1 UNK         0.0806 
    115 H115       31.0382   34.4977    1.1415 H         1 UNK         0.3010 
    116 H116       33.7291   35.3126    0.5161 H         1 UNK         0.0829 
    117 H117       31.9009   33.2285   -0.8053 H         1 UNK         0.0813 
    118 H118       33.3888   33.8628   -1.4941 H         1 UNK         0.0813 
    119 H119       32.0185   34.9323   -1.2492 H         1 UNK         0.0813 
    120 H120       32.3080   32.4239    1.9741 H         1 UNK         0.3038 
    121 H121       35.0059   31.1509    2.2820 H         1 UNK         0.0769 
    122 H122       33.3022   29.6844    1.1967 H         1 UNK         0.0811 
    123 H123       32.2046   29.9280    2.5579 H         1 UNK         0.0811 
    124 H124       33.7302   29.0859    2.7932 H         1 UNK         0.0811 
    125 H125       32.0019   32.1697    3.9099 H         1 UNK         0.3204 
    126 H126       31.4248   32.7599    5.9349 H         1 UNK         0.0748 
    127 H127       34.3831   33.2090    6.5866 H         1 UNK         0.0771 
    128 H128       33.3464   34.3731    5.7653 H         1 UNK         0.0771 
    129 H129       33.0063   33.9097    7.4233 H         1 UNK         0.0771 
    130 H130       32.0792   29.8919    5.3896 H         1 UNK         0.2980 
    131 H131       32.8433   28.7962    7.9735 H         1 UNK         0.0545 
    132 H132       29.7799   29.9014    6.7770 H         1 UNK         0.3459 
    133 H133       28.8230   29.0317    7.9506 H         1 UNK         0.3459 
    134 H134       32.5863   26.5886    6.8848 H         1 UNK         0.0616 
    135 H135       33.6566   27.6549    6.0183 H         1 UNK         0.0616 
    136 H136       33.6454   26.4987    3.6615 H         1 UNK         0.0634 
    137 H137       32.9069   25.2126    4.5943 H         1 UNK         0.0634 
@<TRIPOS>BOND
     1    1    2 1    
     2    1   72 1    
     3    1   73 1    
     4    1   74 1    
     5    2    3 2    
     6    2    4 am   BACKBONE|DICT|INTERRES
     7    4    5 1    
     8    4   75 1    
     9    5    6 1    
    10    5   35 1    
    11    5   76 1    
    12    6    7 1    
    13    6   77 1    
    14    6   78 1    
    15    7    8 1    
    16    8    9 1    
    17    8   79 1    
    18    8   80 1    
    19    9   10 ar   
    20    9   14 ar   
    21   10   11 ar   
    22   10   81 1    
    23   11   12 ar   
    24   11   71 1    
    25   12   13 ar   
    26   12   82 1    
    27   13   14 ar   
    28   13   15 1    
    29   14   83 1    
    30   15   16 1    
    31   15   84 1    
    32   15   85 1    
    33   16   17 1    
    34   17   18 1    
    35   17   86 1    
    36   17   87 1    
    37   18   19 1    
    38   18   37 1    
    39   18   88 1    
    40   19   20 am   BACKBONE|DICT|INTERRES
    41   19   89 1    
    42   20   21 2    
    43   20   22 1    
    44   22   23 1    
    45   22   24 1    
    46   22   90 1    
    47   23   91 1    
    48   23   92 1    
    49   23   93 1    
    50   24   25 am   BACKBONE|DICT|INTERRES
    51   24   94 1    
    52   25   26 2    
    53   25   27 1    
    54   27   28 1    
    55   27   29 1    
    56   27   95 1    
    57   28   96 1    
    58   28   97 1    
    59   28   98 1    
    60   29   30 am   BACKBONE|DICT|INTERRES
    61   29   99 1    
    62   30   31 2    
    63   30   32 1    
    64   32   33 1    
    65   32   34 1    
    66   32  100 1    
    67   33  101 1    
    68   33  102 1    
    69   33  103 1    
    70   34   35 am   BACKBONE|DICT|INTERRES
    71   34  104 1    
    72   35   36 2    
    73   37   38 2    
    74   37   39 am   BACKBONE|DICT|INTERRES
    75   39   40 1    
    76   39  105 1    
    77   40   41 1    
    78   40   42 1    
    79   40  106 1    
    80   41  107 1    
    81   41  108 1    
    82   41  109 1    
    83   42   43 2    
    84   42   44 am   BACKBONE|DICT|INTERRES
    85   44   45 1    
    86   44  110 1    
    87   45   46 1    
    88   45   47 1    
    89   45  111 1    
    90   46  112 1    
    91   46  113 1    
    92   46  114 1    
    93   47   48 2    
    94   47   49 am   BACKBONE|DICT|INTERRES
    95   49   50 1    
    96   49  115 1    
    97   50   51 1    
    98   50   52 1    
    99   50  116 1    
   100   51  117 1    
   101   51  118 1    
   102   51  119 1    
   103   52   53 2    
   104   52   54 am   BACKBONE|DICT|INTERRES
   105   54   55 1    
   106   54  120 1    
   107   55   56 1    
   108   55   57 1    
   109   55  121 1    
   110   56  122 1    
   111   56  123 1    
   112   56  124 1    
   113   57   58 2    
   114   57   59 am   BACKBONE|DICT|INTERRES
   115   59   60 1    
   116   59  125 1    
   117   60   61 1    
   118   60   62 1    
   119   60  126 1    
   120   61  127 1    
   121   61  128 1    
   122   61  129 1    
   123   62   63 2    
   124   62   64 am   BACKBONE|DICT|INTERRES
   125   64   65 1    
   126   64  130 1    
   127   65   66 1    
   128   65   69 1    
   129   65  131 1    
   130   66   67 am   BACKBONE|DICT|INTERRES
   131   66   68 2    
   132   67  132 1    
   133   67  133 1    
   134   69   70 1    
   135   69  134 1    
   136   69  135 1    
   137   70   71 1    
   138   71  136 1    
   139   71  137 1    
@<TRIPOS>SUBSTRUCTURE
     1 UNK         1 GROUP             0       ****    0 ROOT    
