@<TRIPOS>MOLECULE
3R136
137   139    1
SMALL
USER_CHARGES


@<TRIPOS>ATOM
      1 CA         30.3883   31.2840   -2.1013 C.3       0 UNK        -0.1979 
      2 C          29.3695   30.3385   -1.4834 C.2       0 UNK         0.4864 
      3 O          28.2481   30.7530   -1.1839 O.2       0 UNK        -0.5359 
      4 N          29.7470   29.0690   -1.2867 N.am      1 UNK        -0.4318 
      5 CA         28.9207   28.0266   -0.6680 C.3       1 UNK         0.0824 
      6 C6         29.7810   26.9026   -0.0334 C.3       12 UNK        -0.0944 
      7 S7         30.8932   27.5750    1.2423 S.3       12 UNK        -0.2672 
      8 C8         32.2456   26.3548    1.3227 C.3       12 UNK         0.0333 
      9 C9         32.1058   25.4434    2.5336 C.ar      12 UNK        -0.0807 
     10 C10        32.1797   25.9855    3.8206 C.ar      12 UNK        -0.0894 
     11 C11        32.0198   25.1762    4.9497 C.ar      12 UNK        -0.0804 
     12 C12        31.7871   23.8094    4.7780 C.ar      12 UNK        -0.0824 
     13 C13        31.7154   23.2510    3.4983 C.ar      12 UNK        -0.0762 
     14 C14        31.8980   24.0693    2.3779 C.ar      12 UNK        -0.0782 
     15 C15        31.4133   21.7655    3.3407 C.3       12 UNK         0.0230 
     16 S16        29.8497   21.4338    2.4576 S.3       12 UNK        -0.2608 
     17 C17        28.6628   22.5947    3.2250 C.3       12 UNK        -0.0989 
     18 CA         28.3777   23.8214    2.3182 C.3       5 UNK         0.0716 
     19 N          27.6908   23.4662    1.0799 N.am      5 UNK        -0.4135 
     20 C          28.2554   23.3556   -0.1269 C.2       4 UNK         0.5031 
     21 O          29.4664   23.4413   -0.3332 O.2       4 UNK        -0.5229 
     22 CA         27.3115   23.1609   -1.3246 C.3       4 UNK         0.0329 
     23 CB         26.8663   21.6924   -1.4735 C.3       4 UNK        -0.2001 
     24 N          26.1824   24.1019   -1.3276 N.am      4 UNK        -0.4303 
     25 C          25.0984   24.1337   -0.5377 C.2       3 UNK         0.5044 
     26 O          24.8623   23.2784    0.3162 O.2       3 UNK        -0.5152 
     27 CA         24.1455   25.3411   -0.6835 C.3       3 UNK         0.0319 
     28 CB         23.5140   25.7339    0.6652 C.3       3 UNK        -0.2001 
     29 N          24.8124   26.5194   -1.2472 N.am      3 UNK        -0.4354 
     30 C          24.9251   26.8015   -2.5524 C.2       2 UNK         0.4964 
     31 O          24.4177   26.1229   -3.4449 O.2       2 UNK        -0.5047 
     32 CA         25.7873   28.0209   -2.9296 C.3       2 UNK         0.0288 
     33 CB         24.9089   29.2721   -3.0893 C.3       2 UNK        -0.2113 
     34 N          26.8709   28.3105   -1.9813 N.am      2 UNK        -0.4145 
     35 C          27.8862   27.4885   -1.6779 C.2       1 UNK         0.5006 
     36 O          28.0223   26.3678   -2.1714 O.2       1 UNK        -0.5103 
     37 C          27.4999   24.8632    3.0240 C.2       5 UNK         0.5055 
     38 O          26.2871   24.6624    3.1226 O.2       5 UNK        -0.5220 
     39 N          28.1113   25.9577    3.4867 N.am      6 UNK        -0.4450 
     40 CA         27.4542   27.0889    4.1370 C.3       6 UNK         0.0367 
     41 CB         26.7432   27.9617    3.0825 C.3       6 UNK        -0.1929 
     42 C          28.5191   27.9035    4.8784 C.2       6 UNK         0.5070 
     43 O          29.7110   27.6921    4.6565 O.2       6 UNK        -0.5237 
     44 N          28.0879   28.8561    5.7133 N.am      7 UNK        -0.4739 
     45 CA         28.9606   29.8252    6.3860 C.3       7 UNK         0.0276 
     46 CB         28.2336   30.3791    7.6254 C.3       7 UNK        -0.1927 
     47 C          29.4076   30.9351    5.4117 C.2       7 UNK         0.5013 
     48 O          29.0136   32.0929    5.5667 O.2       7 UNK        -0.5193 
     49 N          30.1825   30.5457    4.3963 N.am      8 UNK        -0.4253 
     50 CA         30.6758   31.3855    3.3117 C.3       8 UNK         0.0242 
     51 CB         29.6488   31.3773    2.1635 C.3       8 UNK        -0.2000 
     52 C          32.0357   30.8535    2.8449 C.2       8 UNK         0.4948 
     53 O          32.4519   29.7714    3.2696 O.2       8 UNK        -0.5275 
     54 N          32.7047   31.6290    1.9781 N.am      9 UNK        -0.4246 
     55 CA         34.0066   31.3380    1.3649 C.3       9 UNK         0.0261 
     56 CB         33.8562   30.2267    0.2998 C.3       9 UNK        -0.1959 
     57 C          35.0781   31.0519    2.4354 C.2       9 UNK         0.5033 
     58 O          35.4091   31.9569    3.2041 O.2       9 UNK        -0.5390 
     59 N          35.5555   29.8017    2.5088 N.am      10 UNK        -0.4215 
     60 CA         36.4865   29.3029    3.5263 C.3       10 UNK         0.0240 
     61 CB         36.8718   27.8541    3.1838 C.3       10 UNK        -0.1982 
     62 C          35.9492   29.3844    4.9692 C.2       10 UNK         0.4970 
     63 O          36.7535   29.4720    5.8980 O.2       10 UNK        -0.4916 
     64 N          34.6206   29.3681    5.1279 N.am      11 UNK        -0.4279 
     65 CA         33.9099   29.5435    6.4010 C.3       11 UNK         0.1003 
     66 C          33.3478   30.9848    6.5840 C.2       11 UNK         0.5709 
     67 N          33.7006   31.9585    5.7507 N.am      11 UNK        -0.7358 
     68 O          32.5887   31.2363    7.5167 O.2       11 UNK        -0.4999 
     69 C69        32.8147   28.4601    6.5816 C.3       12 UNK        -0.0954 
     70 S70        33.5145   26.7786    6.6923 S.3       12 UNK        -0.2268 
     71 C71        32.0375   25.7677    6.3559 C.3       12 UNK         0.0203 
     72 H72        30.6447   32.0715   -1.3933 H         1 UNK         0.0888 
     73 H73        31.3058   30.7675   -2.3826 H         1 UNK         0.0888 
     74 H74        29.9742   31.7497   -2.9952 H         1 UNK         0.0888 
     75 H75        30.6743   28.7772   -1.5594 H         1 UNK         0.3017 
     76 H76        28.3524   28.4850    0.1439 H         1 UNK         0.0873 
     77 H77        30.3651   26.3828   -0.7949 H         1 UNK         0.0745 
     78 H78        29.1435   26.1550    0.4384 H         1 UNK         0.0745 
     79 H79        32.2951   25.7796    0.3972 H         1 UNK         0.0705 
     80 H80        33.1917   26.8916    1.4010 H         1 UNK         0.0705 
     81 H81        32.3300   27.0501    3.9388 H         1 UNK         0.1334 
     82 H82        31.6415   23.1797    5.6452 H         1 UNK         0.1417 
     83 H83        31.8282   23.6406    1.3866 H         1 UNK         0.1562 
     84 H84        31.3687   21.2746    4.3142 H         1 UNK         0.0748 
     85 H85        32.2317   21.2904    2.7983 H         1 UNK         0.0748 
     86 H86        29.0431   22.9090    4.1985 H         1 UNK         0.0940 
     87 H87        27.7380   22.0515    3.4287 H         1 UNK         0.0940 
     88 H88        29.3174   24.3127    2.0712 H         1 UNK         0.0703 
     89 H89        26.6775   23.4120    1.1455 H         1 UNK         0.3081 
     90 H90        27.8892   23.4121   -2.2159 H         1 UNK         0.0719 
     91 H91        26.2214   21.5592   -2.3420 H         1 UNK         0.0809 
     92 H92        26.3289   21.3318   -0.5962 H         1 UNK         0.0809 
     93 H93        27.7309   21.0411   -1.6076 H         1 UNK         0.0809 
     94 H94        26.3159   24.8909   -1.9480 H         1 UNK         0.2990 
     95 H95        23.3392   25.0299   -1.3510 H         1 UNK         0.0690 
     96 H96        22.8513   26.5931    0.5601 H         1 UNK         0.0788 
     97 H97        24.2726   25.9810    1.4088 H         1 UNK         0.0788 
     98 H98        22.9163   24.9169    1.0719 H         1 UNK         0.0788 
     99 H99        25.2685   27.1347   -0.5896 H         1 UNK         0.2993 
    100 H100       26.2495   27.8009   -3.8944 H         1 UNK         0.0949 
    101 H101       24.1094   29.0994   -3.8114 H         1 UNK         0.0767 
    102 H102       24.4415   29.5602   -2.1467 H         1 UNK         0.0767 
    103 H103       25.4903   30.1215   -3.4490 H         1 UNK         0.0767 
    104 H104       26.9038   29.2478   -1.5918 H         1 UNK         0.3013 
    105 H105       29.1206   26.0591    3.4307 H         1 UNK         0.3121 
    106 H106       26.7317   26.7157    4.8658 H         1 UNK         0.0774 
    107 H107       26.2194   28.7970    3.5483 H         1 UNK         0.0815 
    108 H108       27.4540   28.3813    2.3701 H         1 UNK         0.0815 
    109 H109       26.0013   27.3937    2.5223 H         1 UNK         0.0815 
    110 H110       27.0933   28.9949    5.8230 H         1 UNK         0.2987 
    111 H111       29.8614   29.3144    6.7333 H         1 UNK         0.0949 
    112 H112       28.8647   31.0912    8.1593 H         1 UNK         0.0806 
    113 H113       27.3112   30.8962    7.3583 H         1 UNK         0.0806 
    114 H114       27.9821   29.5830    8.3263 H         1 UNK         0.0806 
    115 H115       30.4629   29.5688    4.3386 H         1 UNK         0.3010 
    116 H116       30.8194   32.4049    3.6761 H         1 UNK         0.0829 
    117 H117       28.6783   31.7457    2.4959 H         1 UNK         0.0813 
    118 H118       29.9666   32.0128    1.3366 H         1 UNK         0.0813 
    119 H119       29.5036   30.3719    1.7656 H         1 UNK         0.0813 
    120 H120       32.3005   32.5207    1.7285 H         1 UNK         0.3038 
    121 H121       34.3244   32.2471    0.8521 H         1 UNK         0.0769 
    122 H122       34.8064   30.0166   -0.1932 H         1 UNK         0.0811 
    123 H123       33.1565   30.5303   -0.4786 H         1 UNK         0.0811 
    124 H124       33.4816   29.2944    0.7229 H         1 UNK         0.0811 
    125 H125       35.1927   29.1224    1.8564 H         1 UNK         0.3204 
    126 H126       37.3862   29.9199    3.4793 H         1 UNK         0.0748 
    127 H127       37.5904   27.4606    3.9044 H         1 UNK         0.0771 
    128 H128       36.0038   27.1928    3.1962 H         1 UNK         0.0771 
    129 H129       37.3342   27.7865    2.1988 H         1 UNK         0.0771 
    130 H130       34.0182   29.3462    4.3090 H         1 UNK         0.2980 
    131 H131       34.6156   29.4205    7.2240 H         1 UNK         0.0545 
    132 H132       34.3396   31.7902    4.9830 H         1 UNK         0.3459 
    133 H133       33.3367   32.8849    5.9043 H         1 UNK         0.3459 
    134 H134       32.1005   28.5055    5.7586 H         1 UNK         0.0616 
    135 H135       32.2438   28.6291    7.4961 H         1 UNK         0.0616 
    136 H136       32.0083   24.9717    7.1013 H         1 UNK         0.0634 
    137 H137       31.1329   26.3564    6.5109 H         1 UNK         0.0634 
@<TRIPOS>BOND
     1    1    2 1    
     2    1   72 1    
     3    1   73 1    
     4    1   74 1    
     5    2    3 2    
     6    2    4 am   BACKBONE|DICT|INTERRES
     7    4    5 1    
     8    4   75 1    
     9    5    6 1    
    10    5   35 1    
    11    5   76 1    
    12    6    7 1    
    13    6   77 1    
    14    6   78 1    
    15    7    8 1    
    16    8    9 1    
    17    8   79 1    
    18    8   80 1    
    19    9   10 ar   
    20    9   14 ar   
    21   10   11 ar   
    22   10   81 1    
    23   11   12 ar   
    24   11   71 1    
    25   12   13 ar   
    26   12   82 1    
    27   13   14 ar   
    28   13   15 1    
    29   14   83 1    
    30   15   16 1    
    31   15   84 1    
    32   15   85 1    
    33   16   17 1    
    34   17   18 1    
    35   17   86 1    
    36   17   87 1    
    37   18   19 1    
    38   18   37 1    
    39   18   88 1    
    40   19   20 am   BACKBONE|DICT|INTERRES
    41   19   89 1    
    42   20   21 2    
    43   20   22 1    
    44   22   23 1    
    45   22   24 1    
    46   22   90 1    
    47   23   91 1    
    48   23   92 1    
    49   23   93 1    
    50   24   25 am   BACKBONE|DICT|INTERRES
    51   24   94 1    
    52   25   26 2    
    53   25   27 1    
    54   27   28 1    
    55   27   29 1    
    56   27   95 1    
    57   28   96 1    
    58   28   97 1    
    59   28   98 1    
    60   29   30 am   BACKBONE|DICT|INTERRES
    61   29   99 1    
    62   30   31 2    
    63   30   32 1    
    64   32   33 1    
    65   32   34 1    
    66   32  100 1    
    67   33  101 1    
    68   33  102 1    
    69   33  103 1    
    70   34   35 am   BACKBONE|DICT|INTERRES
    71   34  104 1    
    72   35   36 2    
    73   37   38 2    
    74   37   39 am   BACKBONE|DICT|INTERRES
    75   39   40 1    
    76   39  105 1    
    77   40   41 1    
    78   40   42 1    
    79   40  106 1    
    80   41  107 1    
    81   41  108 1    
    82   41  109 1    
    83   42   43 2    
    84   42   44 am   BACKBONE|DICT|INTERRES
    85   44   45 1    
    86   44  110 1    
    87   45   46 1    
    88   45   47 1    
    89   45  111 1    
    90   46  112 1    
    91   46  113 1    
    92   46  114 1    
    93   47   48 2    
    94   47   49 am   BACKBONE|DICT|INTERRES
    95   49   50 1    
    96   49  115 1    
    97   50   51 1    
    98   50   52 1    
    99   50  116 1    
   100   51  117 1    
   101   51  118 1    
   102   51  119 1    
   103   52   53 2    
   104   52   54 am   BACKBONE|DICT|INTERRES
   105   54   55 1    
   106   54  120 1    
   107   55   56 1    
   108   55   57 1    
   109   55  121 1    
   110   56  122 1    
   111   56  123 1    
   112   56  124 1    
   113   57   58 2    
   114   57   59 am   BACKBONE|DICT|INTERRES
   115   59   60 1    
   116   59  125 1    
   117   60   61 1    
   118   60   62 1    
   119   60  126 1    
   120   61  127 1    
   121   61  128 1    
   122   61  129 1    
   123   62   63 2    
   124   62   64 am   BACKBONE|DICT|INTERRES
   125   64   65 1    
   126   64  130 1    
   127   65   66 1    
   128   65   69 1    
   129   65  131 1    
   130   66   67 am   BACKBONE|DICT|INTERRES
   131   66   68 2    
   132   67  132 1    
   133   67  133 1    
   134   69   70 1    
   135   69  134 1    
   136   69  135 1    
   137   70   71 1    
   138   71  136 1    
   139   71  137 1    
@<TRIPOS>SUBSTRUCTURE
     1 UNK         1 GROUP             0       ****    0 ROOT    
