@<TRIPOS>MOLECULE
3R136
137   139    1
SMALL
USER_CHARGES


@<TRIPOS>ATOM
      1 CA         30.8141   19.1004    4.5688 C.3       0 UNK        -0.1979 
      2 C          29.9373   19.9116    3.6267 C.2       0 UNK         0.4864 
      3 O          29.0606   19.3492    2.9668 O.2       0 UNK        -0.5359 
      4 N          30.1595   21.2308    3.5580 N.am      1 UNK        -0.4318 
      5 CA         29.4197   22.1725    2.7107 C.3       1 UNK         0.0824 
      6 C6         30.2370   23.4573    2.4192 C.3       12 UNK        -0.0944 
      7 S7         31.7466   23.0972    1.4648 S.3       12 UNK        -0.2672 
      8 C8         31.2398   23.6350   -0.2082 C.3       12 UNK         0.0333 
      9 C9         31.3446   25.1354   -0.5059 C.ar      12 UNK        -0.0807 
     10 C10        31.8292   26.0733    0.4181 C.ar      12 UNK        -0.0894 
     11 C11        31.9703   27.4257    0.0720 C.ar      12 UNK        -0.0804 
     12 C12        31.6174   27.8293   -1.2187 C.ar      12 UNK        -0.0824 
     13 C13        31.1211   26.9138   -2.1499 C.ar      12 UNK        -0.0762 
     14 C14        30.9803   25.5735   -1.7829 C.ar      12 UNK        -0.0782 
     15 C15        30.7927   27.3566   -3.5707 C.3       12 UNK         0.0230 
     16 S16        29.0270   27.7453   -3.7932 S.3       12 UNK        -0.2608 
     17 C17        28.8686   29.3055   -2.8570 C.3       12 UNK        -0.0989 
     18 CA         27.8854   29.2121   -1.6607 C.3       5 UNK         0.0716 
     19 N          28.1174   28.0231   -0.8282 N.am      5 UNK        -0.4135 
     20 C          27.1980   27.4721   -0.0270 C.2       4 UNK         0.5031 
     21 O          26.0544   27.9122    0.1141 O.2       4 UNK        -0.5229 
     22 CA         27.6649   26.2753    0.8169 C.3       4 UNK         0.0329 
     23 CB         28.2217   26.7898    2.1559 C.3       4 UNK        -0.2001 
     24 N          26.5786   25.3272    1.0780 N.am      4 UNK        -0.4303 
     25 C          25.9499   24.6046    0.1402 C.2       3 UNK         0.5044 
     26 O          26.2878   24.5772   -1.0446 O.2       3 UNK        -0.5152 
     27 CA         24.7828   23.7340    0.6316 C.3       3 UNK         0.0319 
     28 CB         24.0535   22.9995   -0.5097 C.3       3 UNK        -0.2001 
     29 N          25.3089   22.7529    1.5757 N.am      3 UNK        -0.4354 
     30 C          24.9121   22.5915    2.8442 C.2       2 UNK         0.4964 
     31 O          23.9644   23.1912    3.3524 O.2       2 UNK        -0.5047 
     32 CA         25.7324   21.6087    3.7022 C.3       2 UNK         0.0288 
     33 CB         25.0837   20.2151    3.6973 C.3       2 UNK        -0.2113 
     34 N          27.1318   21.4924    3.2746 N.am      2 UNK        -0.4145 
     35 C          28.0340   22.4832    3.3147 C.2       1 UNK         0.5006 
     36 O          27.7984   23.5931    3.7938 O.2       1 UNK        -0.5103 
     37 C          27.9173   30.5268   -0.8459 C.2       5 UNK         0.5055 
     38 O          27.5791   31.5756   -1.3957 O.2       5 UNK        -0.5220 
     39 N          28.3555   30.4550    0.4234 N.am      6 UNK        -0.4450 
     40 CA         28.5669   31.5611    1.3681 C.3       6 UNK         0.0367 
     41 CB         27.2420   32.2831    1.6942 C.3       6 UNK        -0.1929 
     42 C          29.6880   32.5260    0.9307 C.2       6 UNK         0.5070 
     43 O          29.6505   33.7101    1.2674 O.2       6 UNK        -0.5237 
     44 N          30.6816   31.9954    0.2018 N.am      7 UNK        -0.4739 
     45 CA         31.8587   32.7293   -0.2759 C.3       7 UNK         0.0276 
     46 CB         32.5544   31.9058   -1.3723 C.3       7 UNK        -0.1927 
     47 C          32.8547   33.0877    0.8435 C.2       7 UNK         0.5013 
     48 O          33.6441   34.0173    0.6711 O.2       7 UNK        -0.5193 
     49 N          32.7985   32.3566    1.9618 N.am      8 UNK        -0.4253 
     50 CA         33.5621   32.5924    3.1791 C.3       8 UNK         0.0242 
     51 CB         34.8910   31.8181    3.1218 C.3       8 UNK        -0.2000 
     52 C          32.7071   32.1205    4.3568 C.2       8 UNK         0.4948 
     53 O          31.9695   31.1415    4.2133 O.2       8 UNK        -0.5275 
     54 N          32.8472   32.7906    5.5086 N.am      9 UNK        -0.4246 
     55 CA         32.1398   32.4604    6.7531 C.3       9 UNK         0.0261 
     56 CB         32.3803   33.5697    7.7897 C.3       9 UNK        -0.1959 
     57 C          32.5271   31.0879    7.3326 C.2       9 UNK         0.5033 
     58 O          31.6983   30.4470    7.9807 O.2       9 UNK        -0.5390 
     59 N          33.7610   30.6438    7.0510 N.am      10 UNK        -0.4215 
     60 CA         34.3042   29.3321    7.4151 C.3       10 UNK         0.0240 
     61 CB         35.7873   29.2761    7.0131 C.3       10 UNK        -0.1982 
     62 C          33.5396   28.1403    6.8073 C.2       10 UNK         0.4970 
     63 O          33.6188   27.0419    7.3589 O.2       10 UNK        -0.4916 
     64 N          32.8122   28.3698    5.7055 N.am      11 UNK        -0.4279 
     65 CA         31.9248   27.3815    5.0769 C.3       11 UNK         0.1003 
     66 C          30.5892   27.1536    5.8444 C.2       11 UNK         0.5709 
     67 N          30.2365   27.9608    6.8403 N.am      11 UNK        -0.7358 
     68 O          29.8627   26.2133    5.5363 O.2       11 UNK        -0.4999 
     69 C69        31.6583   27.7109    3.5860 C.3       12 UNK        -0.0954 
     70 S70        33.1919   27.8905    2.6159 S.3       12 UNK        -0.2268 
     71 C71        32.5299   28.4890    1.0244 C.3       12 UNK         0.0203 
     72 H72        30.1997   18.6079    5.3220 H         1 UNK         0.0888 
     73 H73        31.3521   18.3334    4.0122 H         1 UNK         0.0888 
     74 H74        31.5464   19.7234    5.0820 H         1 UNK         0.0888 
     75 H75        30.8858   21.6409    4.1276 H         1 UNK         0.3017 
     76 H76        29.2334   21.6895    1.7484 H         1 UNK         0.0873 
     77 H77        30.5181   23.9619    3.3459 H         1 UNK         0.0745 
     78 H78        29.6378   24.1715    1.8540 H         1 UNK         0.0745 
     79 H79        31.8702   23.1056   -0.9241 H         1 UNK         0.0705 
     80 H80        30.2189   23.2987   -0.3964 H         1 UNK         0.0705 
     81 H81        32.1233   25.7432    1.4012 H         1 UNK         0.1334 
     82 H82        31.7566   28.8610   -1.5083 H         1 UNK         0.1417 
     83 H83        30.6126   24.8604   -2.5091 H         1 UNK         0.1562 
     84 H84        31.0638   26.5641   -4.2700 H         1 UNK         0.0748 
     85 H85        31.3959   28.2209   -3.8536 H         1 UNK         0.0748 
     86 H86        28.5244   30.0701   -3.5564 H         1 UNK         0.0940 
     87 H87        29.8529   29.6407   -2.5306 H         1 UNK         0.0940 
     88 H88        26.8785   29.1300   -2.0764 H         1 UNK         0.0703 
     89 H89        29.0231   27.5840   -0.9219 H         1 UNK         0.3081 
     90 H90        28.4545   25.7459    0.2794 H         1 UNK         0.0719 
     91 H91        29.0697   27.4551    1.9942 H         1 UNK         0.0809 
     92 H92        27.4714   27.3503    2.7156 H         1 UNK         0.0809 
     93 H93        28.5668   25.9793    2.7961 H         1 UNK         0.0809 
     94 H94        26.2466   25.2734    2.0305 H         1 UNK         0.2990 
     95 H95        24.0689   24.4010    1.1197 H         1 UNK         0.0690 
     96 H96        23.2138   22.4171   -0.1301 H         1 UNK         0.0788 
     97 H97        24.7178   22.3190   -1.0440 H         1 UNK         0.0788 
     98 H98        23.6545   23.7075   -1.2372 H         1 UNK         0.0788 
     99 H99        26.1062   22.2205    1.2578 H         1 UNK         0.2993 
    100 H100       25.7271   21.9887    4.7262 H         1 UNK         0.0949 
    101 H101       25.6098   19.5307    4.3634 H         1 UNK         0.0767 
    102 H102       24.0483   20.2651    4.0376 H         1 UNK         0.0767 
    103 H103       25.0789   19.7752    2.6991 H         1 UNK         0.0767 
    104 H104       27.4474   20.5849    2.9448 H         1 UNK         0.3013 
    105 H105       28.5896   29.5379    0.7730 H         1 UNK         0.3121 
    106 H106       28.9200   31.1028    2.2935 H         1 UNK         0.0774 
    107 H107       27.3750   32.9924    2.5120 H         1 UNK         0.0815 
    108 H108       26.8633   32.8440    0.8394 H         1 UNK         0.0815 
    109 H109       26.4706   31.5773    2.0019 H         1 UNK         0.0815 
    110 H110       30.6210   31.0201   -0.0444 H         1 UNK         0.2987 
    111 H111       31.5161   33.6678   -0.7177 H         1 UNK         0.0949 
    112 H112       32.9504   30.9671   -0.9850 H         1 UNK         0.0806 
    113 H113       31.8737   31.6760   -2.1923 H         1 UNK         0.0806 
    114 H114       33.3937   32.4583   -1.7972 H         1 UNK         0.0806 
    115 H115       32.0885   31.6417    2.0527 H         1 UNK         0.3010 
    116 H116       33.7592   33.6613    3.2878 H         1 UNK         0.0829 
    117 H117       35.4988   32.1378    2.2753 H         1 UNK         0.0813 
    118 H118       35.4815   31.9819    4.0239 H         1 UNK         0.0813 
    119 H119       34.7267   30.7436    3.0272 H         1 UNK         0.0813 
    120 H120       33.4735   33.5831    5.5404 H         1 UNK         0.3038 
    121 H121       31.0713   32.4272    6.5291 H         1 UNK         0.0769 
    122 H122       33.4372   33.6691    8.0400 H         1 UNK         0.0811 
    123 H123       31.8447   33.3592    8.7167 H         1 UNK         0.0811 
    124 H124       32.0274   34.5355    7.4275 H         1 UNK         0.0811 
    125 H125       34.3661   31.2493    6.5167 H         1 UNK         0.3204 
    126 H126       34.2370   29.2387    8.5010 H         1 UNK         0.0748 
    127 H127       36.3636   30.0594    7.5060 H         1 UNK         0.0771 
    128 H128       36.2336   28.3220    7.2976 H         1 UNK         0.0771 
    129 H129       35.9179   29.3879    5.9357 H         1 UNK         0.0771 
    130 H130       32.7780   29.3008    5.3114 H         1 UNK         0.2980 
    131 H131       32.4423   26.4205    5.0995 H         1 UNK         0.0545 
    132 H132       30.8217   28.7389    7.1199 H         1 UNK         0.3459 
    133 H133       29.3704   27.7879    7.3245 H         1 UNK         0.3459 
    134 H134       31.0767   28.6303    3.4984 H         1 UNK         0.0616 
    135 H135       31.0632   26.9193    3.1301 H         1 UNK         0.0616 
    136 H136       31.7626   29.2387    1.2195 H         1 UNK         0.0634 
    137 H137       33.3441   29.0087    0.5175 H         1 UNK         0.0634 
@<TRIPOS>BOND
     1    1    2 1    
     2    1   72 1    
     3    1   73 1    
     4    1   74 1    
     5    2    3 2    
     6    2    4 am   BACKBONE|DICT|INTERRES
     7    4    5 1    
     8    4   75 1    
     9    5    6 1    
    10    5   35 1    
    11    5   76 1    
    12    6    7 1    
    13    6   77 1    
    14    6   78 1    
    15    7    8 1    
    16    8    9 1    
    17    8   79 1    
    18    8   80 1    
    19    9   10 ar   
    20    9   14 ar   
    21   10   11 ar   
    22   10   81 1    
    23   11   12 ar   
    24   11   71 1    
    25   12   13 ar   
    26   12   82 1    
    27   13   14 ar   
    28   13   15 1    
    29   14   83 1    
    30   15   16 1    
    31   15   84 1    
    32   15   85 1    
    33   16   17 1    
    34   17   18 1    
    35   17   86 1    
    36   17   87 1    
    37   18   19 1    
    38   18   37 1    
    39   18   88 1    
    40   19   20 am   BACKBONE|DICT|INTERRES
    41   19   89 1    
    42   20   21 2    
    43   20   22 1    
    44   22   23 1    
    45   22   24 1    
    46   22   90 1    
    47   23   91 1    
    48   23   92 1    
    49   23   93 1    
    50   24   25 am   BACKBONE|DICT|INTERRES
    51   24   94 1    
    52   25   26 2    
    53   25   27 1    
    54   27   28 1    
    55   27   29 1    
    56   27   95 1    
    57   28   96 1    
    58   28   97 1    
    59   28   98 1    
    60   29   30 am   BACKBONE|DICT|INTERRES
    61   29   99 1    
    62   30   31 2    
    63   30   32 1    
    64   32   33 1    
    65   32   34 1    
    66   32  100 1    
    67   33  101 1    
    68   33  102 1    
    69   33  103 1    
    70   34   35 am   BACKBONE|DICT|INTERRES
    71   34  104 1    
    72   35   36 2    
    73   37   38 2    
    74   37   39 am   BACKBONE|DICT|INTERRES
    75   39   40 1    
    76   39  105 1    
    77   40   41 1    
    78   40   42 1    
    79   40  106 1    
    80   41  107 1    
    81   41  108 1    
    82   41  109 1    
    83   42   43 2    
    84   42   44 am   BACKBONE|DICT|INTERRES
    85   44   45 1    
    86   44  110 1    
    87   45   46 1    
    88   45   47 1    
    89   45  111 1    
    90   46  112 1    
    91   46  113 1    
    92   46  114 1    
    93   47   48 2    
    94   47   49 am   BACKBONE|DICT|INTERRES
    95   49   50 1    
    96   49  115 1    
    97   50   51 1    
    98   50   52 1    
    99   50  116 1    
   100   51  117 1    
   101   51  118 1    
   102   51  119 1    
   103   52   53 2    
   104   52   54 am   BACKBONE|DICT|INTERRES
   105   54   55 1    
   106   54  120 1    
   107   55   56 1    
   108   55   57 1    
   109   55  121 1    
   110   56  122 1    
   111   56  123 1    
   112   56  124 1    
   113   57   58 2    
   114   57   59 am   BACKBONE|DICT|INTERRES
   115   59   60 1    
   116   59  125 1    
   117   60   61 1    
   118   60   62 1    
   119   60  126 1    
   120   61  127 1    
   121   61  128 1    
   122   61  129 1    
   123   62   63 2    
   124   62   64 am   BACKBONE|DICT|INTERRES
   125   64   65 1    
   126   64  130 1    
   127   65   66 1    
   128   65   69 1    
   129   65  131 1    
   130   66   67 am   BACKBONE|DICT|INTERRES
   131   66   68 2    
   132   67  132 1    
   133   67  133 1    
   134   69   70 1    
   135   69  134 1    
   136   69  135 1    
   137   70   71 1    
   138   71  136 1    
   139   71  137 1    
@<TRIPOS>SUBSTRUCTURE
     1 UNK         1 GROUP             0       ****    0 ROOT    
