@<TRIPOS>MOLECULE
3R136
137   139    1
SMALL
USER_CHARGES


@<TRIPOS>ATOM
      1 CA         31.8656   26.8725   -0.7534 C.3       0 UNK        -0.1979 
      2 C          30.6706   25.9399   -0.6283 C.2       0 UNK         0.4864 
      3 O          29.5678   26.2964   -1.0401 O.2       0 UNK        -0.5359 
      4 N          30.8833   24.7331   -0.0867 N.am      1 UNK        -0.4318 
      5 CA         29.8522   23.7229    0.2098 C.3       1 UNK         0.0824 
      6 C6         30.3663   22.6567    1.2110 C.3       12 UNK        -0.0944 
      7 S7         30.9300   23.4176    2.7697 S.3       12 UNK        -0.2672 
      8 C8         29.4830   23.1710    3.8554 C.3       12 UNK         0.0333 
      9 C9         29.3292   24.3025    4.8663 C.ar      12 UNK        -0.0807 
     10 C10        30.4136   24.7042    5.6524 C.ar      12 UNK        -0.0894 
     11 C11        30.2973   25.7796    6.5362 C.ar      12 UNK        -0.0804 
     12 C12        29.0672   26.4320    6.6616 C.ar      12 UNK        -0.0824 
     13 C13        27.9587   26.0117    5.9187 C.ar      12 UNK        -0.0762 
     14 C14        28.0966   24.9455    5.0232 C.ar      12 UNK        -0.0782 
     15 C15        26.6128   26.6974    6.1149 C.3       12 UNK         0.0230 
     16 S16        26.5468   28.3021    5.2572 S.3       12 UNK        -0.2608 
     17 C17        25.4923   27.9310    3.8115 C.3       12 UNK        -0.0989 
     18 CA         26.1867   27.1473    2.6657 C.3       5 UNK         0.0716 
     19 N          25.2843   26.8981    1.5511 N.am      5 UNK        -0.4135 
     20 C          24.3222   25.9713    1.5113 C.2       4 UNK         0.5031 
     21 O          24.0062   25.2705    2.4737 O.2       4 UNK        -0.5229 
     22 CA         23.5995   25.7719    0.1634 C.3       4 UNK         0.0329 
     23 CB         22.3028   26.5967    0.1240 C.3       4 UNK        -0.2001 
     24 N          24.4150   26.0922   -1.0173 N.am      4 UNK        -0.4303 
     25 C          25.5733   25.4954   -1.3348 C.2       3 UNK         0.5044 
     26 O          26.0825   24.6013   -0.6549 O.2       3 UNK        -0.5152 
     27 CA         26.2815   26.0078   -2.6029 C.3       3 UNK         0.0319 
     28 CB         26.6773   27.4885   -2.4552 C.3       3 UNK        -0.2001 
     29 N          27.4922   25.2275   -2.8578 N.am      3 UNK        -0.4354 
     30 C          27.5369   24.0752   -3.5443 C.2       2 UNK         0.4964 
     31 O          26.5902   23.6270   -4.1925 O.2       2 UNK        -0.5047 
     32 CA         28.8540   23.2736   -3.4885 C.3       2 UNK         0.0288 
     33 CB         29.7528   23.6233   -4.6857 C.3       2 UNK        -0.2113 
     34 N          29.5905   23.5126   -2.2455 N.am      2 UNK        -0.4145 
     35 C          29.2080   23.0698   -1.0383 C.2       1 UNK         0.5006 
     36 O          28.3563   22.1921   -0.8864 O.2       1 UNK        -0.5103 
     37 C          27.4094   27.8710    2.0839 C.2       5 UNK         0.5055 
     38 O          27.2657   28.6308    1.1208 O.2       5 UNK        -0.5220 
     39 N          28.5792   27.6651    2.7007 N.am      6 UNK        -0.4450 
     40 CA         29.8287   28.3636    2.3984 C.3       6 UNK         0.0367 
     41 CB         31.0047   27.4959    2.8813 C.3       6 UNK        -0.1929 
     42 C          29.8356   29.7728    3.0252 C.2       6 UNK         0.5070 
     43 O          30.7165   30.0944    3.8237 O.2       6 UNK        -0.5237 
     44 N          28.8410   30.5914    2.6542 N.am      7 UNK        -0.4739 
     45 CA         28.5325   31.9099    3.2249 C.3       7 UNK         0.0276 
     46 CB         27.2281   32.4283    2.5987 C.3       7 UNK        -0.1927 
     47 C          29.6510   32.9607    3.0950 C.2       7 UNK         0.5013 
     48 O          29.6735   33.9165    3.8706 O.2       7 UNK        -0.5193 
     49 N          30.5744   32.7506    2.1479 N.am      8 UNK        -0.4253 
     50 CA         31.8041   33.5285    1.9726 C.3       8 UNK         0.0242 
     51 CB         32.3305   33.2924    0.5456 C.3       8 UNK        -0.2000 
     52 C          32.8988   33.2095    3.0153 C.2       8 UNK         0.4948 
     53 O          33.9647   33.8228    2.9543 O.2       8 UNK        -0.5275 
     54 N          32.6443   32.2456    3.9169 N.am      9 UNK        -0.4246 
     55 CA         33.5584   31.6747    4.9156 C.3       9 UNK         0.0261 
     56 CB         34.1079   32.7440    5.8840 C.3       9 UNK        -0.1959 
     57 C          34.6604   30.8031    4.2849 C.2       9 UNK         0.5033 
     58 O          35.7094   30.5953    4.8979 O.2       9 UNK        -0.5390 
     59 N          34.3847   30.2647    3.0869 N.am      10 UNK        -0.4215 
     60 CA         35.2660   29.3790    2.3180 C.3       10 UNK         0.0240 
     61 CB         34.6488   29.1409    0.9299 C.3       10 UNK        -0.1982 
     62 C          35.5679   28.0391    3.0152 C.2       10 UNK         0.4970 
     63 O          36.5807   27.4128    2.7021 O.2       10 UNK        -0.4916 
     64 N          34.6995   27.6380    3.9512 N.am      11 UNK        -0.4279 
     65 CA         34.8929   26.5001    4.8559 C.3       11 UNK         0.1003 
     66 C          35.9612   26.7228    5.9691 C.2       11 UNK         0.5709 
     67 N          36.4708   27.9320    6.1824 N.am      11 UNK        -0.7358 
     68 O          36.3470   25.7709    6.6436 O.2       11 UNK        -0.4999 
     69 C69        33.5360   26.0105    5.4231 C.3       12 UNK        -0.0954 
     70 S70        32.6406   27.2679    6.4048 S.3       12 UNK        -0.2268 
     71 C71        31.4955   26.2253    7.3640 C.3       12 UNK         0.0203 
     72 H72        32.7315   26.4991   -0.2070 H         1 UNK         0.0888 
     73 H73        32.1442   26.9859   -1.8006 H         1 UNK         0.0888 
     74 H74        31.6165   27.8576   -0.3611 H         1 UNK         0.0888 
     75 H75        31.8136   24.4902    0.2236 H         1 UNK         0.3017 
     76 H76        29.0309   24.2531    0.6983 H         1 UNK         0.0873 
     77 H77        29.5957   21.9170    1.4368 H         1 UNK         0.0745 
     78 H78        31.2001   22.1005    0.7790 H         1 UNK         0.0745 
     79 H79        28.5830   23.0936    3.2433 H         1 UNK         0.0705 
     80 H80        29.5858   22.2221    4.3832 H         1 UNK         0.0705 
     81 H81        31.3589   24.1889    5.5575 H         1 UNK         0.1334 
     82 H82        28.9664   27.2617    7.3483 H         1 UNK         0.1417 
     83 H83        27.2414   24.6054    4.4558 H         1 UNK         0.1562 
     84 H84        26.4483   26.8659    7.1803 H         1 UNK         0.0748 
     85 H85        25.7965   26.0531    5.7847 H         1 UNK         0.0748 
     86 H86        25.1104   28.8802    3.4307 H         1 UNK         0.0940 
     87 H87        24.6147   27.3854    4.1615 H         1 UNK         0.0940 
     88 H88        26.5180   26.1789    3.0373 H         1 UNK         0.0703 
     89 H89        25.5066   27.4302    0.7189 H         1 UNK         0.3081 
     90 H90        23.3331   24.7150    0.0964 H         1 UNK         0.0719 
     91 H91        22.5039   27.6683    0.1551 H         1 UNK         0.0809 
     92 H92        21.7252   26.3878   -0.7767 H         1 UNK         0.0809 
     93 H93        21.6642   26.3606    0.9766 H         1 UNK         0.0809 
     94 H94        24.0603   26.8153   -1.6269 H         1 UNK         0.2990 
     95 H95        25.5952   25.9083   -3.4464 H         1 UNK         0.0690 
     96 H96        25.8007   28.1308   -2.3659 H         1 UNK         0.0788 
     97 H97        27.2398   27.8356   -3.3221 H         1 UNK         0.0788 
     98 H98        27.2946   27.6556   -1.5711 H         1 UNK         0.0788 
     99 H99        28.2998   25.4991   -2.3035 H         1 UNK         0.2993 
    100 H100       28.6000   22.2126   -3.5438 H         1 UNK         0.0949 
    101 H101       30.6627   23.0226   -4.6874 H         1 UNK         0.0767 
    102 H102       29.2373   23.4318   -5.6280 H         1 UNK         0.0767 
    103 H103       30.0431   24.6748   -4.6804 H         1 UNK         0.0767 
    104 H104       30.3052   24.2249   -2.2727 H         1 UNK         0.3013 
    105 H105       28.5910   27.0836    3.5278 H         1 UNK         0.3121 
    106 H106       29.9158   28.4839    1.3168 H         1 UNK         0.0774 
    107 H107       31.9616   27.9627    2.6498 H         1 UNK         0.0815 
    108 H108       30.9662   27.3418    3.9596 H         1 UNK         0.0815 
    109 H109       30.9981   26.5144    2.4086 H         1 UNK         0.0815 
    110 H110       28.1708   30.2180    1.9886 H         1 UNK         0.2987 
    111 H111       28.3627   31.7634    4.2938 H         1 UNK         0.0949 
    112 H112       27.3234   32.5599    1.5202 H         1 UNK         0.0806 
    113 H113       26.4004   31.7425    2.7820 H         1 UNK         0.0806 
    114 H114       26.9461   33.3935    3.0222 H         1 UNK         0.0806 
    115 H115       30.4565   31.9427    1.5541 H         1 UNK         0.3010 
    116 H116       31.5607   34.5880    2.0774 H         1 UNK         0.0829 
    117 H117       31.5856   33.5642   -0.2027 H         1 UNK         0.0813 
    118 H118       33.2164   33.8978    0.3483 H         1 UNK         0.0813 
    119 H119       32.6067   32.2499    0.3827 H         1 UNK         0.0813 
    120 H120       31.7487   31.7673    3.8604 H         1 UNK         0.3038 
    121 H121       32.9490   30.9893    5.5070 H         1 UNK         0.0769 
    122 H122       34.8189   33.4106    5.3957 H         1 UNK         0.0811 
    123 H123       34.6287   32.2781    6.7214 H         1 UNK         0.0811 
    124 H124       33.3055   33.3527    6.3008 H         1 UNK         0.0811 
    125 H125       33.4906   30.4854    2.6747 H         1 UNK         0.3204 
    126 H126       36.2192   29.8956    2.1874 H         1 UNK         0.0748 
    127 H127       35.2896   28.5011    0.3213 H         1 UNK         0.0771 
    128 H128       33.6754   28.6555    0.9984 H         1 UNK         0.0771 
    129 H129       34.5207   30.0771    0.3859 H         1 UNK         0.0771 
    130 H130       33.9046   28.2231    4.1580 H         1 UNK         0.2980 
    131 H131       35.2851   25.6825    4.2482 H         1 UNK         0.0545 
    132 H132       36.1649   28.7361    5.6463 H         1 UNK         0.3459 
    133 H133       37.1643   28.0492    6.9034 H         1 UNK         0.3459 
    134 H134       32.8934   25.7077    4.5953 H         1 UNK         0.0616 
    135 H135       33.6836   25.1155    6.0299 H         1 UNK         0.0616 
    136 H136       31.1586   26.7936    8.2322 H         1 UNK         0.0634 
    137 H137       32.0245   25.3570    7.7595 H         1 UNK         0.0634 
@<TRIPOS>BOND
     1    1    2 1    
     2    1   72 1    
     3    1   73 1    
     4    1   74 1    
     5    2    3 2    
     6    2    4 am   BACKBONE|DICT|INTERRES
     7    4    5 1    
     8    4   75 1    
     9    5    6 1    
    10    5   35 1    
    11    5   76 1    
    12    6    7 1    
    13    6   77 1    
    14    6   78 1    
    15    7    8 1    
    16    8    9 1    
    17    8   79 1    
    18    8   80 1    
    19    9   10 ar   
    20    9   14 ar   
    21   10   11 ar   
    22   10   81 1    
    23   11   12 ar   
    24   11   71 1    
    25   12   13 ar   
    26   12   82 1    
    27   13   14 ar   
    28   13   15 1    
    29   14   83 1    
    30   15   16 1    
    31   15   84 1    
    32   15   85 1    
    33   16   17 1    
    34   17   18 1    
    35   17   86 1    
    36   17   87 1    
    37   18   19 1    
    38   18   37 1    
    39   18   88 1    
    40   19   20 am   BACKBONE|DICT|INTERRES
    41   19   89 1    
    42   20   21 2    
    43   20   22 1    
    44   22   23 1    
    45   22   24 1    
    46   22   90 1    
    47   23   91 1    
    48   23   92 1    
    49   23   93 1    
    50   24   25 am   BACKBONE|DICT|INTERRES
    51   24   94 1    
    52   25   26 2    
    53   25   27 1    
    54   27   28 1    
    55   27   29 1    
    56   27   95 1    
    57   28   96 1    
    58   28   97 1    
    59   28   98 1    
    60   29   30 am   BACKBONE|DICT|INTERRES
    61   29   99 1    
    62   30   31 2    
    63   30   32 1    
    64   32   33 1    
    65   32   34 1    
    66   32  100 1    
    67   33  101 1    
    68   33  102 1    
    69   33  103 1    
    70   34   35 am   BACKBONE|DICT|INTERRES
    71   34  104 1    
    72   35   36 2    
    73   37   38 2    
    74   37   39 am   BACKBONE|DICT|INTERRES
    75   39   40 1    
    76   39  105 1    
    77   40   41 1    
    78   40   42 1    
    79   40  106 1    
    80   41  107 1    
    81   41  108 1    
    82   41  109 1    
    83   42   43 2    
    84   42   44 am   BACKBONE|DICT|INTERRES
    85   44   45 1    
    86   44  110 1    
    87   45   46 1    
    88   45   47 1    
    89   45  111 1    
    90   46  112 1    
    91   46  113 1    
    92   46  114 1    
    93   47   48 2    
    94   47   49 am   BACKBONE|DICT|INTERRES
    95   49   50 1    
    96   49  115 1    
    97   50   51 1    
    98   50   52 1    
    99   50  116 1    
   100   51  117 1    
   101   51  118 1    
   102   51  119 1    
   103   52   53 2    
   104   52   54 am   BACKBONE|DICT|INTERRES
   105   54   55 1    
   106   54  120 1    
   107   55   56 1    
   108   55   57 1    
   109   55  121 1    
   110   56  122 1    
   111   56  123 1    
   112   56  124 1    
   113   57   58 2    
   114   57   59 am   BACKBONE|DICT|INTERRES
   115   59   60 1    
   116   59  125 1    
   117   60   61 1    
   118   60   62 1    
   119   60  126 1    
   120   61  127 1    
   121   61  128 1    
   122   61  129 1    
   123   62   63 2    
   124   62   64 am   BACKBONE|DICT|INTERRES
   125   64   65 1    
   126   64  130 1    
   127   65   66 1    
   128   65   69 1    
   129   65  131 1    
   130   66   67 am   BACKBONE|DICT|INTERRES
   131   66   68 2    
   132   67  132 1    
   133   67  133 1    
   134   69   70 1    
   135   69  134 1    
   136   69  135 1    
   137   70   71 1    
   138   71  136 1    
   139   71  137 1    
@<TRIPOS>SUBSTRUCTURE
     1 UNK         1 GROUP             0       ****    0 ROOT    
