@<TRIPOS>MOLECULE
3R136
137   139    1
SMALL
USER_CHARGES


@<TRIPOS>ATOM
      1 CA         25.6514   26.3619    2.9307 C.3       0 UNK        -0.1979 
      2 C          26.4042   25.2163    2.2732 C.2       0 UNK         0.4864 
      3 O          27.0382   25.4189    1.2330 O.2       0 UNK        -0.5359 
      4 N          26.3662   24.0253    2.8872 N.am      1 UNK        -0.4318 
      5 CA         27.0405   22.8004    2.4450 C.3       1 UNK         0.0824 
      6 C6         28.5879   22.9400    2.4788 C.3       12 UNK        -0.0944 
      7 S7         29.4741   21.3657    2.2450 S.3       12 UNK        -0.2672 
      8 C8         31.0861   21.7583    3.0101 C.3       12 UNK         0.0333 
      9 C9         31.8416   22.9174    2.3570 C.ar      12 UNK        -0.0807 
     10 C10        32.6629   23.7275    3.1487 C.ar      12 UNK        -0.0894 
     11 C11        33.3979   24.7731    2.5818 C.ar      12 UNK        -0.0804 
     12 C12        33.2995   25.0169    1.2085 C.ar      12 UNK        -0.0824 
     13 C13        32.4880   24.2135    0.4010 C.ar      12 UNK        -0.0762 
     14 C14        31.7705   23.1623    0.9796 C.ar      12 UNK        -0.0782 
     15 C15        32.4255   24.4419   -1.1047 C.3       12 UNK         0.0230 
     16 S16        31.7735   26.0820   -1.5549 S.3       12 UNK        -0.2608 
     17 C17        30.0350   25.9741   -1.0124 C.3       12 UNK        -0.0989 
     18 CA         29.5088   27.3362   -0.4952 C.3       5 UNK         0.0716 
     19 N          28.0477   27.3815   -0.4730 N.am      5 UNK        -0.4135 
     20 C          27.3112   28.4937   -0.5936 C.2       4 UNK         0.5031 
     21 O          27.7853   29.6098   -0.8094 O.2       4 UNK        -0.5229 
     22 CA         25.7884   28.3101   -0.4844 C.3       4 UNK         0.0329 
     23 CB         24.9900   29.5139   -1.0243 C.3       4 UNK        -0.2001 
     24 N          25.3932   27.0847   -1.1788 N.am      4 UNK        -0.4303 
     25 C          24.3266   26.3297   -0.8930 C.2       3 UNK         0.5044 
     26 O          23.5055   26.5871   -0.0132 O.2       3 UNK        -0.5152 
     27 CA         24.1864   25.0462   -1.7145 C.3       3 UNK         0.0319 
     28 CB         24.0566   25.3617   -3.2220 C.3       3 UNK        -0.2001 
     29 N          25.3312   24.1813   -1.4236 N.am      3 UNK        -0.4354 
     30 C          25.5085   22.9286   -1.8642 C.2       2 UNK         0.4964 
     31 O          24.7326   22.3444   -2.6212 O.2       2 UNK        -0.5047 
     32 CA         26.7639   22.1881   -1.3671 C.3       2 UNK         0.0288 
     33 CB         27.9455   22.4301   -2.3210 C.3       2 UNK        -0.2113 
     34 N          27.1658   22.5532   -0.0066 N.am      2 UNK        -0.4145 
     35 C          26.4470   22.3226    1.1016 C.2       1 UNK         0.5006 
     36 O          25.3462   21.7676    1.1011 O.2       1 UNK        -0.5103 
     37 C          30.0535   27.6846    0.8999 C.2       5 UNK         0.5055 
     38 O          30.9063   28.5651    1.0213 O.2       5 UNK        -0.5220 
     39 N          29.4977   27.0431    1.9385 N.am      6 UNK        -0.4450 
     40 CA         29.8398   27.2908    3.3399 C.3       6 UNK         0.0367 
     41 CB         29.6531   26.0044    4.1603 C.3       6 UNK        -0.1929 
     42 C          29.0652   28.4879    3.9132 C.2       6 UNK         0.5070 
     43 O          28.4217   28.3756    4.9582 O.2       6 UNK        -0.5237 
     44 N          29.1407   29.6282    3.2187 N.am      7 UNK        -0.4739 
     45 CA         28.5580   30.9072    3.6203 C.3       7 UNK         0.0276 
     46 CB         28.3518   31.7769    2.3669 C.3       7 UNK        -0.1927 
     47 C          29.4299   31.5881    4.6919 C.2       7 UNK         0.5013 
     48 O          30.0528   32.6174    4.4210 O.2       7 UNK        -0.5193 
     49 N          29.4801   30.9677    5.8803 N.am      8 UNK        -0.4253 
     50 CA         30.2044   31.3819    7.0866 C.3       8 UNK         0.0242 
     51 CB         29.4832   32.5751    7.7545 C.3       8 UNK        -0.2000 
     52 C          31.6993   31.6323    6.8106 C.2       8 UNK         0.4948 
     53 O          32.4540   30.6720    6.6477 O.2       8 UNK        -0.5275 
     54 N          32.0892   32.9122    6.7297 N.am      9 UNK        -0.4246 
     55 CA         33.4458   33.3892    6.4505 C.3       9 UNK         0.0261 
     56 CB         33.4792   34.9183    6.6072 C.3       9 UNK        -0.1959 
     57 C          34.0080   32.9782    5.0764 C.2       9 UNK         0.5033 
     58 O          35.2251   33.0414    4.8984 O.2       9 UNK        -0.5390 
     59 N          33.1474   32.5440    4.1415 N.am      10 UNK        -0.4215 
     60 CA         33.5247   32.0413    2.8140 C.3       10 UNK         0.0240 
     61 CB         32.2561   31.6849    2.0262 C.3       10 UNK        -0.1982 
     62 C          34.4984   30.8452    2.8296 C.2       10 UNK         0.4970 
     63 O          35.2691   30.6964    1.8803 O.2       10 UNK        -0.4916 
     64 N          34.4726   30.0404    3.9010 N.am      11 UNK        -0.4279 
     65 CA         35.4467   28.9661    4.1534 C.3       11 UNK         0.1003 
     66 C          36.8195   29.4603    4.7009 C.2       11 UNK         0.5709 
     67 N          37.0143   30.7394    5.0017 N.am      11 UNK        -0.7358 
     68 O          37.7424   28.6613    4.8429 O.2       11 UNK        -0.4999 
     69 C69        34.8510   27.8467    5.0473 C.3       12 UNK        -0.0954 
     70 S70        33.4599   26.9902    4.2419 S.3       12 UNK        -0.2268 
     71 C71        34.3314   25.6090    3.4455 C.3       12 UNK         0.0203 
     72 H72        26.2692   27.2592    2.9467 H         1 UNK         0.0888 
     73 H73        24.7406   26.5822    2.3761 H         1 UNK         0.0888 
     74 H74        25.3761   26.1276    3.9588 H         1 UNK         0.0888 
     75 H75        25.8010   23.9221    3.7188 H         1 UNK         0.3017 
     76 H76        26.7718   22.0364    3.1766 H         1 UNK         0.0873 
     77 H77        28.8752   23.3221    3.4582 H         1 UNK         0.0745 
     78 H78        28.9517   23.6704    1.7552 H         1 UNK         0.0745 
     79 H79        30.9200   21.9656    4.0685 H         1 UNK         0.0705 
     80 H80        31.7155   20.8688    2.9658 H         1 UNK         0.0705 
     81 H81        32.7431   23.5378    4.2105 H         1 UNK         0.1334 
     82 H82        33.8663   25.8230    0.7627 H         1 UNK         0.1417 
     83 H83        31.1639   22.5251    0.3512 H         1 UNK         0.1562 
     84 H84        31.8210   23.6764   -1.5942 H         1 UNK         0.0748 
     85 H85        33.4313   24.3426   -1.5150 H         1 UNK         0.0748 
     86 H86        29.9114   25.1897   -0.2638 H         1 UNK         0.0940 
     87 H87        29.4528   25.6568   -1.8788 H         1 UNK         0.0940 
     88 H88        29.8542   28.1101   -1.1851 H         1 UNK         0.0703 
     89 H89        27.5775   26.5391   -0.1521 H         1 UNK         0.3081 
     90 H90        25.5683   28.2022    0.5791 H         1 UNK         0.0719 
     91 H91        25.2552   30.4302   -0.4952 H         1 UNK         0.0809 
     92 H92        25.1828   29.6791   -2.0849 H         1 UNK         0.0809 
     93 H93        23.9171   29.3695   -0.8971 H         1 UNK         0.0809 
     94 H94        26.0029   26.7933   -1.9308 H         1 UNK         0.2990 
     95 H95        23.2795   24.5358   -1.3838 H         1 UNK         0.0690 
     96 H96        23.3033   26.1311   -3.3973 H         1 UNK         0.0788 
     97 H97        23.7465   24.4849   -3.7899 H         1 UNK         0.0788 
     98 H98        24.9944   25.7170   -3.6498 H         1 UNK         0.0788 
     99 H99        25.9909   24.5431   -0.7459 H         1 UNK         0.2993 
    100 H100       26.5339   21.1203   -1.3684 H         1 UNK         0.0949 
    101 H101       28.8196   21.8484   -2.0267 H         1 UNK         0.0767 
    102 H102       27.6902   22.1348   -3.3399 H         1 UNK         0.0767 
    103 H103       28.2346   23.4812   -2.3497 H         1 UNK         0.0767 
    104 H104       28.0559   23.0158    0.0980 H         1 UNK         0.3013 
    105 H105       28.7482   26.3845    1.7593 H         1 UNK         0.3121 
    106 H106       30.8932   27.5605    3.3946 H         1 UNK         0.0774 
    107 H107       28.6127   25.6829    4.1859 H         1 UNK         0.0815 
    108 H108       30.2568   25.1943    3.7541 H         1 UNK         0.0815 
    109 H109       29.9736   26.1529    5.1923 H         1 UNK         0.0815 
    110 H110       29.7186   29.6275    2.3848 H         1 UNK         0.2987 
    111 H111       27.5753   30.7295    4.0635 H         1 UNK         0.0949 
    112 H112       27.9257   32.7461    2.6295 H         1 UNK         0.0806 
    113 H113       29.2876   31.9632    1.8408 H         1 UNK         0.0806 
    114 H114       27.6666   31.3015    1.6646 H         1 UNK         0.0806 
    115 H115       28.9974   30.0759    5.9415 H         1 UNK         0.3010 
    116 H116       30.1616   30.5408    7.7804 H         1 UNK         0.0829 
    117 H117       29.3937   33.4344    7.0889 H         1 UNK         0.0813 
    118 H118       28.4746   32.2959    8.0599 H         1 UNK         0.0813 
    119 H119       30.0073   32.9012    8.6543 H         1 UNK         0.0813 
    120 H120       31.3782   33.6219    6.8340 H         1 UNK         0.3038 
    121 H121       34.1046   32.9535    7.2045 H         1 UNK         0.0769 
    122 H122       32.8175   35.4113    5.8937 H         1 UNK         0.0811 
    123 H123       34.4850   35.3070    6.4405 H         1 UNK         0.0811 
    124 H124       33.1804   35.2226    7.6106 H         1 UNK         0.0811 
    125 H125       32.1558   32.5526    4.3604 H         1 UNK         0.3204 
    126 H126       34.0298   32.8576    2.2939 H         1 UNK         0.0748 
    127 H127       32.5006   31.3249    1.0257 H         1 UNK         0.0771 
    128 H128       31.6857   30.8994    2.5222 H         1 UNK         0.0771 
    129 H129       31.6084   32.5536    1.9088 H         1 UNK         0.0771 
    130 H130       33.8154   30.2310    4.6455 H         1 UNK         0.2980 
    131 H131       35.6838   28.5074    3.1916 H         1 UNK         0.0545 
    132 H132       36.2843   31.4352    4.8817 H         1 UNK         0.3459 
    133 H133       37.9167   31.0245    5.3466 H         1 UNK         0.3459 
    134 H134       34.4983   28.2642    5.9921 H         1 UNK         0.0616 
    135 H135       35.6057   27.1025    5.3085 H         1 UNK         0.0616 
    136 H136       35.1497   26.0015    2.8399 H         1 UNK         0.0634 
    137 H137       34.7888   24.9819    4.2122 H         1 UNK         0.0634 
@<TRIPOS>BOND
     1    1    2 1    
     2    1   72 1    
     3    1   73 1    
     4    1   74 1    
     5    2    3 2    
     6    2    4 am   BACKBONE|DICT|INTERRES
     7    4    5 1    
     8    4   75 1    
     9    5    6 1    
    10    5   35 1    
    11    5   76 1    
    12    6    7 1    
    13    6   77 1    
    14    6   78 1    
    15    7    8 1    
    16    8    9 1    
    17    8   79 1    
    18    8   80 1    
    19    9   10 ar   
    20    9   14 ar   
    21   10   11 ar   
    22   10   81 1    
    23   11   12 ar   
    24   11   71 1    
    25   12   13 ar   
    26   12   82 1    
    27   13   14 ar   
    28   13   15 1    
    29   14   83 1    
    30   15   16 1    
    31   15   84 1    
    32   15   85 1    
    33   16   17 1    
    34   17   18 1    
    35   17   86 1    
    36   17   87 1    
    37   18   19 1    
    38   18   37 1    
    39   18   88 1    
    40   19   20 am   BACKBONE|DICT|INTERRES
    41   19   89 1    
    42   20   21 2    
    43   20   22 1    
    44   22   23 1    
    45   22   24 1    
    46   22   90 1    
    47   23   91 1    
    48   23   92 1    
    49   23   93 1    
    50   24   25 am   BACKBONE|DICT|INTERRES
    51   24   94 1    
    52   25   26 2    
    53   25   27 1    
    54   27   28 1    
    55   27   29 1    
    56   27   95 1    
    57   28   96 1    
    58   28   97 1    
    59   28   98 1    
    60   29   30 am   BACKBONE|DICT|INTERRES
    61   29   99 1    
    62   30   31 2    
    63   30   32 1    
    64   32   33 1    
    65   32   34 1    
    66   32  100 1    
    67   33  101 1    
    68   33  102 1    
    69   33  103 1    
    70   34   35 am   BACKBONE|DICT|INTERRES
    71   34  104 1    
    72   35   36 2    
    73   37   38 2    
    74   37   39 am   BACKBONE|DICT|INTERRES
    75   39   40 1    
    76   39  105 1    
    77   40   41 1    
    78   40   42 1    
    79   40  106 1    
    80   41  107 1    
    81   41  108 1    
    82   41  109 1    
    83   42   43 2    
    84   42   44 am   BACKBONE|DICT|INTERRES
    85   44   45 1    
    86   44  110 1    
    87   45   46 1    
    88   45   47 1    
    89   45  111 1    
    90   46  112 1    
    91   46  113 1    
    92   46  114 1    
    93   47   48 2    
    94   47   49 am   BACKBONE|DICT|INTERRES
    95   49   50 1    
    96   49  115 1    
    97   50   51 1    
    98   50   52 1    
    99   50  116 1    
   100   51  117 1    
   101   51  118 1    
   102   51  119 1    
   103   52   53 2    
   104   52   54 am   BACKBONE|DICT|INTERRES
   105   54   55 1    
   106   54  120 1    
   107   55   56 1    
   108   55   57 1    
   109   55  121 1    
   110   56  122 1    
   111   56  123 1    
   112   56  124 1    
   113   57   58 2    
   114   57   59 am   BACKBONE|DICT|INTERRES
   115   59   60 1    
   116   59  125 1    
   117   60   61 1    
   118   60   62 1    
   119   60  126 1    
   120   61  127 1    
   121   61  128 1    
   122   61  129 1    
   123   62   63 2    
   124   62   64 am   BACKBONE|DICT|INTERRES
   125   64   65 1    
   126   64  130 1    
   127   65   66 1    
   128   65   69 1    
   129   65  131 1    
   130   66   67 am   BACKBONE|DICT|INTERRES
   131   66   68 2    
   132   67  132 1    
   133   67  133 1    
   134   69   70 1    
   135   69  134 1    
   136   69  135 1    
   137   70   71 1    
   138   71  136 1    
   139   71  137 1    
@<TRIPOS>SUBSTRUCTURE
     1 UNK         1 GROUP             0       ****    0 ROOT    
