@<TRIPOS>MOLECULE
3R136
137   139    1
SMALL
USER_CHARGES


@<TRIPOS>ATOM
      1 CA         32.4156   26.5097   -1.7412 C.3       0 UNK        -0.1979 
      2 C          31.5119   25.8645   -0.7003 C.2       0 UNK         0.4864 
      3 O          31.2891   26.4459    0.3616 O.2       0 UNK        -0.5359 
      4 N          30.9962   24.6697   -1.0082 N.am      1 UNK        -0.4318 
      5 CA         30.0684   23.9062   -0.1743 C.3       1 UNK         0.0824 
      6 C6         30.4829   22.4059   -0.1390 C.3       12 UNK        -0.0944 
      7 S7         29.6106   21.4027    1.1169 S.3       12 UNK        -0.2672 
      8 C8         30.7548   21.4581    2.5314 C.3       12 UNK         0.0333 
      9 C9         30.7880   22.8379    3.1700 C.ar      12 UNK        -0.0807 
     10 C10        31.8726   23.6921    2.9452 C.ar      12 UNK        -0.0894 
     11 C11        31.8938   24.9678    3.5139 C.ar      12 UNK        -0.0804 
     12 C12        30.8327   25.3795    4.3227 C.ar      12 UNK        -0.0824 
     13 C13        29.7458   24.5359    4.5591 C.ar      12 UNK        -0.0762 
     14 C14        29.7280   23.2637    3.9792 C.ar      12 UNK        -0.0782 
     15 C15        28.6083   24.9957    5.4607 C.3       12 UNK         0.0230 
     16 S16        27.1684   25.5989    4.5220 S.3       12 UNK        -0.2608 
     17 C17        27.8023   27.1258    3.7435 C.3       12 UNK        -0.0989 
     18 CA         27.7661   27.0323    2.1949 C.3       5 UNK         0.0716 
     19 N          26.4030   26.8769    1.6555 N.am      5 UNK        -0.4135 
     20 C          25.4269   27.8043    1.6703 C.2       4 UNK         0.5031 
     21 O          25.5072   28.8826    2.2597 O.2       4 UNK        -0.5229 
     22 CA         24.1462   27.5249    0.8620 C.3       4 UNK         0.0329 
     23 CB         24.2222   28.2333   -0.5014 C.3       4 UNK        -0.2001 
     24 N          23.8864   26.1057    0.6399 N.am      4 UNK        -0.4303 
     25 C          23.4210   25.2536    1.5632 C.2       3 UNK         0.5044 
     26 O          23.0759   25.5886    2.6966 O.2       3 UNK        -0.5152 
     27 CA         23.3385   23.7697    1.1513 C.3       3 UNK         0.0319 
     28 CB         21.9038   23.4050    0.7368 C.3       3 UNK        -0.2001 
     29 N          24.2636   23.4003    0.0700 N.am      3 UNK        -0.4354 
     30 C          25.5988   23.4869    0.1529 C.2       2 UNK         0.4964 
     31 O          26.1840   23.8688    1.1684 O.2       2 UNK        -0.5047 
     32 CA         26.3903   23.1067   -1.1129 C.3       2 UNK         0.0288 
     33 CB         25.9932   23.9733   -2.3291 C.3       2 UNK        -0.2113 
     34 N          27.8399   23.1373   -0.8820 N.am      2 UNK        -0.4145 
     35 C          28.6238   24.1990   -0.6389 C.2       1 UNK         0.5006 
     36 O          28.2496   25.3720   -0.7407 O.2       1 UNK        -0.5103 
     37 C          28.4638   28.2201    1.4931 C.2       5 UNK         0.5055 
     38 O          28.7389   29.2432    2.1214 O.2       5 UNK        -0.5220 
     39 N          28.6241   28.0812    0.1699 N.am      6 UNK        -0.4450 
     40 CA         28.8944   29.1513   -0.7945 C.3       6 UNK         0.0367 
     41 CB         28.7910   28.5620   -2.2115 C.3       6 UNK        -0.1929 
     42 C          30.2140   29.9317   -0.6325 C.2       6 UNK         0.5070 
     43 O          30.3150   31.0257   -1.1913 O.2       6 UNK        -0.5237 
     44 N          31.2081   29.3734    0.0709 N.am      7 UNK        -0.4739 
     45 CA         32.5177   29.9975    0.2978 C.3       7 UNK         0.0276 
     46 CB         33.4377   28.9969    1.0115 C.3       7 UNK        -0.1927 
     47 C          32.4487   31.2954    1.1234 C.2       7 UNK         0.5013 
     48 O          31.5123   31.4935    1.9033 O.2       7 UNK        -0.5193 
     49 N          33.4918   32.1271    0.9856 N.am      8 UNK        -0.4253 
     50 CA         33.7111   33.3403    1.7780 C.3       8 UNK         0.0242 
     51 CB         35.0086   34.0256    1.3200 C.3       8 UNK        -0.2000 
     52 C          33.7667   33.0184    3.2804 C.2       8 UNK         0.4948 
     53 O          34.5191   32.1255    3.6800 O.2       8 UNK        -0.5275 
     54 N          32.9185   33.7036    4.0615 N.am      9 UNK        -0.4246 
     55 CA         32.6810   33.4997    5.4983 C.3       9 UNK         0.0261 
     56 CB         33.9057   33.9658    6.3151 C.3       9 UNK        -0.1959 
     57 C          32.2465   32.0614    5.8613 C.2       9 UNK         0.5033 
     58 O          32.5218   31.6103    6.9755 O.2       9 UNK        -0.5390 
     59 N          31.6171   31.3520    4.9067 N.am      10 UNK        -0.4215 
     60 CA         31.2361   29.9345    4.9636 C.3       10 UNK         0.0240 
     61 CB         30.0369   29.7335    5.9151 C.3       10 UNK        -0.1982 
     62 C          32.4282   29.0102    5.2891 C.2       10 UNK         0.4970 
     63 O          32.2602   28.0531    6.0440 O.2       10 UNK        -0.4916 
     64 N          33.6083   29.3527    4.7467 N.am      11 UNK        -0.4279 
     65 CA         34.9258   28.7399    4.9925 C.3       11 UNK         0.1003 
     66 C          35.3878   28.6755    6.4823 C.2       11 UNK         0.5709 
     67 N          34.8140   29.4612    7.3880 N.am      11 UNK        -0.7358 
     68 O          36.3149   27.9426    6.8197 O.2       11 UNK        -0.4999 
     69 C69        35.2016   27.4531    4.1524 C.3       12 UNK        -0.0954 
     70 S70        34.2412   25.9638    4.5944 S.3       12 UNK        -0.2268 
     71 C71        33.0371   25.9259    3.2323 C.3       12 UNK         0.0203 
     72 H72        33.4485   26.5047   -1.3954 H         1 UNK         0.0888 
     73 H73        32.3757   25.9851   -2.6955 H         1 UNK         0.0888 
     74 H74        32.1177   27.5428   -1.9152 H         1 UNK         0.0888 
     75 H75        31.1956   24.2687   -1.9135 H         1 UNK         0.3017 
     76 H76        30.1186   24.2838    0.8481 H         1 UNK         0.0873 
     77 H77        31.5529   22.3309    0.0620 H         1 UNK         0.0745 
     78 H78        30.3440   21.9417   -1.1172 H         1 UNK         0.0745 
     79 H79        31.7511   21.1485    2.2116 H         1 UNK         0.0705 
     80 H80        30.4325   20.7259    3.2731 H         1 UNK         0.0705 
     81 H81        32.6900   23.3735    2.3130 H         1 UNK         0.1334 
     82 H82        30.8559   26.3624    4.7693 H         1 UNK         0.1417 
     83 H83        28.8852   22.6076    4.1506 H         1 UNK         0.1562 
     84 H84        28.9481   25.7777    6.1420 H         1 UNK         0.0748 
     85 H85        28.2898   24.1648    6.0919 H         1 UNK         0.0748 
     86 H86        28.8185   27.3171    4.0862 H         1 UNK         0.0940 
     87 H87        27.2093   27.9702    4.0984 H         1 UNK         0.0940 
     88 H88        28.3218   26.1372    1.9091 H         1 UNK         0.0703 
     89 H89        26.2278   25.9890    1.1999 H         1 UNK         0.3081 
     90 H90        23.3059   27.9452    1.4193 H         1 UNK         0.0719 
     91 H91        25.0443   27.8533   -1.1097 H         1 UNK         0.0809 
     92 H92        23.2983   28.1093   -1.0668 H         1 UNK         0.0809 
     93 H93        24.3807   29.3054   -0.3754 H         1 UNK         0.0809 
     94 H94        24.1226   25.7357   -0.2688 H         1 UNK         0.2990 
     95 H95        23.6029   23.1765    2.0294 H         1 UNK         0.0690 
     96 H96        21.8081   22.3388    0.5306 H         1 UNK         0.0788 
     97 H97        21.5892   23.9507   -0.1538 H         1 UNK         0.0788 
     98 H98        21.1955   23.6433    1.5318 H         1 UNK         0.0788 
     99 H99        23.8466   23.0709   -0.7892 H         1 UNK         0.2993 
    100 H100       26.1446   22.0678   -1.3389 H         1 UNK         0.0949 
    101 H101       26.6244   23.7562   -3.1910 H         1 UNK         0.0767 
    102 H102       24.9637   23.7825   -2.6332 H         1 UNK         0.0767 
    103 H103       26.0744   25.0402   -2.1185 H         1 UNK         0.0767 
    104 H104       28.2549   22.2340   -0.6918 H         1 UNK         0.3013 
    105 H105       28.4310   27.1631   -0.2278 H         1 UNK         0.3121 
    106 H106       28.0922   29.8826   -0.6772 H         1 UNK         0.0774 
    107 H107       28.9517   29.3283   -2.9711 H         1 UNK         0.0815 
    108 H108       29.5313   27.7783   -2.3746 H         1 UNK         0.0815 
    109 H109       27.8055   28.1318   -2.3914 H         1 UNK         0.0815 
    110 H110       31.0610   28.4471    0.4613 H         1 UNK         0.2987 
    111 H111       32.9425   30.2328   -0.6804 H         1 UNK         0.0949 
    112 H112       34.4472   29.3946    1.1234 H         1 UNK         0.0806 
    113 H113       33.0646   28.7792    2.0098 H         1 UNK         0.0806 
    114 H114       33.5216   28.0574    0.4685 H         1 UNK         0.0806 
    115 H115       34.2347   31.8693    0.3524 H         1 UNK         0.3010 
    116 H116       32.8754   34.0160    1.5840 H         1 UNK         0.0829 
    117 H117       34.9650   34.2976    0.2652 H         1 UNK         0.0813 
    118 H118       35.1841   34.9434    1.8831 H         1 UNK         0.0813 
    119 H119       35.8780   33.3831    1.4669 H         1 UNK         0.0813 
    120 H120       32.3281   34.3980    3.6232 H         1 UNK         0.3038 
    121 H121       31.8407   34.1422    5.7652 H         1 UNK         0.0769 
    122 H122       33.6930   33.9530    7.3848 H         1 UNK         0.0811 
    123 H123       34.1913   34.9854    6.0566 H         1 UNK         0.0811 
    124 H124       34.7703   33.3223    6.1484 H         1 UNK         0.0811 
    125 H125       31.4776   31.7858    3.9989 H         1 UNK         0.3204 
    126 H126       30.9094   29.6617    3.9586 H         1 UNK         0.0748 
    127 H127       29.6919   28.6993    5.9028 H         1 UNK         0.0771 
    128 H128       30.2942   29.9773    6.9463 H         1 UNK         0.0771 
    129 H129       29.1925   30.3573    5.6218 H         1 UNK         0.0771 
    130 H130       33.6492   30.2139    4.2142 H         1 UNK         0.2980 
    131 H131       35.6083   29.4841    4.5806 H         1 UNK         0.0545 
    132 H132       35.1319   29.4220    8.3428 H         1 UNK         0.3459 
    133 H133       34.0499   30.0763    7.1361 H         1 UNK         0.3459 
    134 H134       35.0477   27.6715    3.0955 H         1 UNK         0.0616 
    135 H135       36.2573   27.1878    4.2280 H         1 UNK         0.0616 
    136 H136       32.6192   26.9208    3.0925 H         1 UNK         0.0634 
    137 H137       33.5421   25.6663    2.3006 H         1 UNK         0.0634 
@<TRIPOS>BOND
     1    1    2 1    
     2    1   72 1    
     3    1   73 1    
     4    1   74 1    
     5    2    3 2    
     6    2    4 am   BACKBONE|DICT|INTERRES
     7    4    5 1    
     8    4   75 1    
     9    5    6 1    
    10    5   35 1    
    11    5   76 1    
    12    6    7 1    
    13    6   77 1    
    14    6   78 1    
    15    7    8 1    
    16    8    9 1    
    17    8   79 1    
    18    8   80 1    
    19    9   10 ar   
    20    9   14 ar   
    21   10   11 ar   
    22   10   81 1    
    23   11   12 ar   
    24   11   71 1    
    25   12   13 ar   
    26   12   82 1    
    27   13   14 ar   
    28   13   15 1    
    29   14   83 1    
    30   15   16 1    
    31   15   84 1    
    32   15   85 1    
    33   16   17 1    
    34   17   18 1    
    35   17   86 1    
    36   17   87 1    
    37   18   19 1    
    38   18   37 1    
    39   18   88 1    
    40   19   20 am   BACKBONE|DICT|INTERRES
    41   19   89 1    
    42   20   21 2    
    43   20   22 1    
    44   22   23 1    
    45   22   24 1    
    46   22   90 1    
    47   23   91 1    
    48   23   92 1    
    49   23   93 1    
    50   24   25 am   BACKBONE|DICT|INTERRES
    51   24   94 1    
    52   25   26 2    
    53   25   27 1    
    54   27   28 1    
    55   27   29 1    
    56   27   95 1    
    57   28   96 1    
    58   28   97 1    
    59   28   98 1    
    60   29   30 am   BACKBONE|DICT|INTERRES
    61   29   99 1    
    62   30   31 2    
    63   30   32 1    
    64   32   33 1    
    65   32   34 1    
    66   32  100 1    
    67   33  101 1    
    68   33  102 1    
    69   33  103 1    
    70   34   35 am   BACKBONE|DICT|INTERRES
    71   34  104 1    
    72   35   36 2    
    73   37   38 2    
    74   37   39 am   BACKBONE|DICT|INTERRES
    75   39   40 1    
    76   39  105 1    
    77   40   41 1    
    78   40   42 1    
    79   40  106 1    
    80   41  107 1    
    81   41  108 1    
    82   41  109 1    
    83   42   43 2    
    84   42   44 am   BACKBONE|DICT|INTERRES
    85   44   45 1    
    86   44  110 1    
    87   45   46 1    
    88   45   47 1    
    89   45  111 1    
    90   46  112 1    
    91   46  113 1    
    92   46  114 1    
    93   47   48 2    
    94   47   49 am   BACKBONE|DICT|INTERRES
    95   49   50 1    
    96   49  115 1    
    97   50   51 1    
    98   50   52 1    
    99   50  116 1    
   100   51  117 1    
   101   51  118 1    
   102   51  119 1    
   103   52   53 2    
   104   52   54 am   BACKBONE|DICT|INTERRES
   105   54   55 1    
   106   54  120 1    
   107   55   56 1    
   108   55   57 1    
   109   55  121 1    
   110   56  122 1    
   111   56  123 1    
   112   56  124 1    
   113   57   58 2    
   114   57   59 am   BACKBONE|DICT|INTERRES
   115   59   60 1    
   116   59  125 1    
   117   60   61 1    
   118   60   62 1    
   119   60  126 1    
   120   61  127 1    
   121   61  128 1    
   122   61  129 1    
   123   62   63 2    
   124   62   64 am   BACKBONE|DICT|INTERRES
   125   64   65 1    
   126   64  130 1    
   127   65   66 1    
   128   65   69 1    
   129   65  131 1    
   130   66   67 am   BACKBONE|DICT|INTERRES
   131   66   68 2    
   132   67  132 1    
   133   67  133 1    
   134   69   70 1    
   135   69  134 1    
   136   69  135 1    
   137   70   71 1    
   138   71  136 1    
   139   71  137 1    
@<TRIPOS>SUBSTRUCTURE
     1 UNK         1 GROUP             0       ****    0 ROOT    
