@<TRIPOS>MOLECULE
3R136
137   139    1
SMALL
USER_CHARGES


@<TRIPOS>ATOM
      1 CA         28.9342   22.7812    5.9265 C.3       0 UNK        -0.1979 
      2 C          28.1305   22.1547    4.7959 C.2       0 UNK         0.4864 
      3 O          27.1185   21.5004    5.0531 O.2       0 UNK        -0.5359 
      4 N          28.5805   22.3407    3.5490 N.am      1 UNK        -0.4318 
      5 CA         27.8964   21.8967    2.3320 C.3       1 UNK         0.0824 
      6 C6         28.8741   21.8164    1.1289 C.3       12 UNK        -0.0944 
      7 S7         29.6771   23.4039    0.7117 S.3       12 UNK        -0.2672 
      8 C8         31.4157   23.0598    1.1138 C.3       12 UNK         0.0333 
      9 C9         32.2533   24.3241    1.0007 C.ar      12 UNK        -0.0807 
     10 C10        32.7173   24.9712    2.1490 C.ar      12 UNK        -0.0894 
     11 C11        33.4760   26.1421    2.0538 C.ar      12 UNK        -0.0804 
     12 C12        33.7669   26.6637    0.7847 C.ar      12 UNK        -0.0824 
     13 C13        33.3115   26.0234   -0.3737 C.ar      12 UNK        -0.0762 
     14 C14        32.5584   24.8517   -0.2564 C.ar      12 UNK        -0.0782 
     15 C15        33.6472   26.5716   -1.7576 C.3       12 UNK         0.0230 
     16 S16        32.9959   28.2477   -2.0676 S.3       12 UNK        -0.2608 
     17 C17        31.1915   28.0372   -1.8451 C.3       12 UNK        -0.0989 
     18 CA         30.4896   29.3139   -1.3095 C.3       5 UNK         0.0716 
     19 N          29.0303   29.1526   -1.3279 N.am      5 UNK        -0.4135 
     20 C          28.1056   29.9895   -0.8297 C.2       4 UNK         0.5031 
     21 O          28.3632   31.0353   -0.2289 O.2       4 UNK        -0.5229 
     22 CA         26.6270   29.6147   -1.0520 C.3       4 UNK         0.0329 
     23 CB         25.9940   30.5495   -2.0960 C.3       4 UNK        -0.2001 
     24 N          26.4211   28.2243   -1.4731 N.am      4 UNK        -0.4303 
     25 C          26.4620   27.1647   -0.6552 C.2       3 UNK         0.5044 
     26 O          26.6865   27.2337    0.5545 O.2       3 UNK        -0.5152 
     27 CA         26.2398   25.7996   -1.3145 C.3       3 UNK         0.0319 
     28 CB         27.5383   25.2867   -1.9630 C.3       3 UNK        -0.2001 
     29 N          25.7821   24.8471   -0.3065 N.am      3 UNK        -0.4354 
     30 C          24.9457   23.8271   -0.5262 C.2       2 UNK         0.4964 
     31 O          24.4943   23.5443   -1.6380 O.2       2 UNK        -0.5047 
     32 CA         24.5750   22.9652    0.6969 C.3       2 UNK         0.0288 
     33 CB         23.4642   21.9421    0.3902 C.3       2 UNK        -0.2113 
     34 N          25.7486   22.2508    1.2026 N.am      2 UNK        -0.4145 
     35 C          26.6680   22.7808    2.0194 C.2       1 UNK         0.5006 
     36 O          26.5845   23.9241    2.4781 O.2       1 UNK        -0.5103 
     37 C          31.0268   29.7028    0.0829 C.2       5 UNK         0.5055 
     38 O          30.6854   29.0422    1.0632 O.2       5 UNK        -0.5220 
     39 N          31.8617   30.7526    0.1201 N.am      6 UNK        -0.4450 
     40 CA         32.5918   31.2680    1.2831 C.3       6 UNK         0.0367 
     41 CB         33.7612   30.3300    1.6198 C.3       6 UNK        -0.1929 
     42 C          31.6794   31.5483    2.4917 C.2       6 UNK         0.5070 
     43 O          31.8864   30.9908    3.5742 O.2       6 UNK        -0.5237 
     44 N          30.6730   32.4003    2.2465 N.am      7 UNK        -0.4739 
     45 CA         29.6350   32.8512    3.1788 C.3       7 UNK         0.0276 
     46 CB         30.2448   33.7150    4.3038 C.3       7 UNK        -0.1927 
     47 C          28.7697   31.6896    3.6994 C.2       7 UNK         0.5013 
     48 O          28.6248   31.5245    4.9111 O.2       7 UNK        -0.5193 
     49 N          28.2132   30.9120    2.7583 N.am      8 UNK        -0.4253 
     50 CA         27.3428   29.7506    2.9780 C.3       8 UNK         0.0242 
     51 CB         25.9960   30.1753    3.6020 C.3       8 UNK        -0.2000 
     52 C          28.0466   28.6207    3.7513 C.2       8 UNK         0.4948 
     53 O          27.5450   28.1646    4.7811 O.2       8 UNK        -0.5275 
     54 N          29.2071   28.2049    3.2273 N.am      9 UNK        -0.4246 
     55 CA         30.0800   27.1345    3.7093 C.3       9 UNK         0.0261 
     56 CB         29.3671   25.7689    3.6469 C.3       9 UNK        -0.1959 
     57 C          30.7194   27.4210    5.0799 C.2       9 UNK         0.5033 
     58 O          31.0177   26.4777    5.8154 O.2       9 UNK        -0.5390 
     59 N          30.9435   28.7041    5.3985 N.am      10 UNK        -0.4215 
     60 CA         31.5910   29.1311    6.6381 C.3       10 UNK         0.0240 
     61 CB         31.1610   30.5626    6.9938 C.3       10 UNK        -0.1982 
     62 C          33.1191   29.0226    6.5486 C.2       10 UNK         0.4970 
     63 O          33.7303   28.4814    7.4707 O.2       10 UNK        -0.4916 
     64 N          33.7042   29.5414    5.4562 N.am      11 UNK        -0.4279 
     65 CA         35.1622   29.5961    5.2167 C.3       11 UNK         0.1003 
     66 C          35.9532   30.4649    6.2480 C.2       11 UNK         0.5709 
     67 N          35.3141   31.3870    6.9591 N.am      11 UNK        -0.7358 
     68 O          37.1683   30.3389    6.3822 O.2       11 UNK        -0.4999 
     69 C69        35.7857   28.1840    4.9703 C.3       12 UNK        -0.0954 
     70 S70        35.5691   27.5945    3.2574 S.3       12 UNK        -0.2268 
     71 C71        33.9140   26.8426    3.3396 C.3       12 UNK         0.0203 
     72 H72        29.1402   22.0399    6.6981 H         1 UNK         0.0888 
     73 H73        29.8878   23.1786    5.5794 H         1 UNK         0.0888 
     74 H74        28.3709   23.5973    6.3783 H         1 UNK         0.0888 
     75 H75        29.3874   22.9244    3.3902 H         1 UNK         0.3017 
     76 H76        27.5222   20.8872    2.5179 H         1 UNK         0.0873 
     77 H77        28.3567   21.4562    0.2378 H         1 UNK         0.0745 
     78 H78        29.6408   21.0679    1.3350 H         1 UNK         0.0745 
     79 H79        31.4823   22.6434    2.1201 H         1 UNK         0.0705 
     80 H80        31.8024   22.2988    0.4343 H         1 UNK         0.0705 
     81 H81        32.4752   24.5688    3.1232 H         1 UNK         0.1334 
     82 H82        34.3431   27.5728    0.6905 H         1 UNK         0.1417 
     83 H83        32.1975   24.3488   -1.1435 H         1 UNK         0.1562 
     84 H84        33.2755   25.9070   -2.5391 H         1 UNK         0.0748 
     85 H85        34.7319   26.5940   -1.8705 H         1 UNK         0.0748 
     86 H86        30.9927   27.1962   -1.1780 H         1 UNK         0.0940 
     87 H87        30.7742   27.7574   -2.8136 H         1 UNK         0.0940 
     88 H88        30.7054   30.1322   -1.9994 H         1 UNK         0.0703 
     89 H89        28.6908   28.3174   -1.7777 H         1 UNK         0.3081 
     90 H90        26.1050   29.7702   -0.1057 H         1 UNK         0.0719 
     91 H91        26.4666   30.4451   -3.0735 H         1 UNK         0.0809 
     92 H92        24.9287   30.3502   -2.2138 H         1 UNK         0.0809 
     93 H93        26.0933   31.5942   -1.7968 H         1 UNK         0.0809 
     94 H94        26.2236   28.0747   -2.4530 H         1 UNK         0.2990 
     95 H95        25.4703   25.9137   -2.0813 H         1 UNK         0.0690 
     96 H96        27.8632   25.9438   -2.7703 H         1 UNK         0.0788 
     97 H97        27.4041   24.2930   -2.3909 H         1 UNK         0.0788 
     98 H98        28.3522   25.2306   -1.2394 H         1 UNK         0.0788 
     99 H99        26.1090   25.0298    0.6385 H         1 UNK         0.2993 
    100 H100       24.1986   23.6397    1.4696 H         1 UNK         0.0949 
    101 H101       23.1822   21.3847    1.2838 H         1 UNK         0.0767 
    102 H102       22.5653   22.4402    0.0243 H         1 UNK         0.0767 
    103 H103       23.7720   21.2230   -0.3701 H         1 UNK         0.0767 
    104 H104       25.8981   21.3220    0.8350 H         1 UNK         0.3013 
    105 H105       32.0542   31.2274   -0.7511 H         1 UNK         0.3121 
    106 H106       33.0175   32.2273    0.9847 H         1 UNK         0.0774 
    107 H107       34.4151   30.7874    2.3594 H         1 UNK         0.0815 
    108 H108       33.4041   29.3837    2.0224 H         1 UNK         0.0815 
    109 H109       34.3691   30.1149    0.7412 H         1 UNK         0.0815 
    110 H110       30.5844   32.7491    1.3016 H         1 UNK         0.2987 
    111 H111       28.9620   33.4931    2.6076 H         1 UNK         0.0949 
    112 H112       30.9368   33.1479    4.9251 H         1 UNK         0.0806 
    113 H113       30.7859   34.5692    3.8971 H         1 UNK         0.0806 
    114 H114       29.4671   34.1077    4.9600 H         1 UNK         0.0806 
    115 H115       28.4241   31.1149    1.7848 H         1 UNK         0.3010 
    116 H116       27.1256   29.3446    1.9920 H         1 UNK         0.0829 
    117 H117       25.5052   30.9418    3.0025 H         1 UNK         0.0813 
    118 H118       25.3141   29.3264    3.6642 H         1 UNK         0.0813 
    119 H119       26.1201   30.5657    4.6125 H         1 UNK         0.0813 
    120 H120       29.5603   28.6640    2.3864 H         1 UNK         0.3038 
    121 H121       30.9018   27.0990    2.9950 H         1 UNK         0.0769 
    122 H122       28.5814   25.6842    4.3980 H         1 UNK         0.0811 
    123 H123       30.0734   24.9574    3.8165 H         1 UNK         0.0811 
    124 H124       28.9127   25.6054    2.6695 H         1 UNK         0.0811 
    125 H125       30.7187   29.4281    4.7257 H         1 UNK         0.3204 
    126 H126       31.2574   28.4795    7.4489 H         1 UNK         0.0748 
    127 H127       31.6162   30.8865    7.9306 H         1 UNK         0.0771 
    128 H128       31.4512   31.2770    6.2244 H         1 UNK         0.0771 
    129 H129       30.0800   30.6297    7.1186 H         1 UNK         0.0771 
    130 H130       33.1190   30.0039    4.7655 H         1 UNK         0.2980 
    131 H131       35.2838   30.1648    4.2976 H         1 UNK         0.0545 
    132 H132       35.8334   31.9526    7.6116 H         1 UNK         0.3459 
    133 H133       34.3228   31.5232    6.8483 H         1 UNK         0.3459 
    134 H134       36.8643   28.1914    5.1313 H         1 UNK         0.0616 
    135 H135       35.3977   27.4425    5.6693 H         1 UNK         0.0616 
    136 H136       33.8927   26.1447    4.1781 H         1 UNK         0.0634 
    137 H137       33.1911   27.6239    3.5648 H         1 UNK         0.0634 
@<TRIPOS>BOND
     1    1    2 1    
     2    1   72 1    
     3    1   73 1    
     4    1   74 1    
     5    2    3 2    
     6    2    4 am   BACKBONE|DICT|INTERRES
     7    4    5 1    
     8    4   75 1    
     9    5    6 1    
    10    5   35 1    
    11    5   76 1    
    12    6    7 1    
    13    6   77 1    
    14    6   78 1    
    15    7    8 1    
    16    8    9 1    
    17    8   79 1    
    18    8   80 1    
    19    9   10 ar   
    20    9   14 ar   
    21   10   11 ar   
    22   10   81 1    
    23   11   12 ar   
    24   11   71 1    
    25   12   13 ar   
    26   12   82 1    
    27   13   14 ar   
    28   13   15 1    
    29   14   83 1    
    30   15   16 1    
    31   15   84 1    
    32   15   85 1    
    33   16   17 1    
    34   17   18 1    
    35   17   86 1    
    36   17   87 1    
    37   18   19 1    
    38   18   37 1    
    39   18   88 1    
    40   19   20 am   BACKBONE|DICT|INTERRES
    41   19   89 1    
    42   20   21 2    
    43   20   22 1    
    44   22   23 1    
    45   22   24 1    
    46   22   90 1    
    47   23   91 1    
    48   23   92 1    
    49   23   93 1    
    50   24   25 am   BACKBONE|DICT|INTERRES
    51   24   94 1    
    52   25   26 2    
    53   25   27 1    
    54   27   28 1    
    55   27   29 1    
    56   27   95 1    
    57   28   96 1    
    58   28   97 1    
    59   28   98 1    
    60   29   30 am   BACKBONE|DICT|INTERRES
    61   29   99 1    
    62   30   31 2    
    63   30   32 1    
    64   32   33 1    
    65   32   34 1    
    66   32  100 1    
    67   33  101 1    
    68   33  102 1    
    69   33  103 1    
    70   34   35 am   BACKBONE|DICT|INTERRES
    71   34  104 1    
    72   35   36 2    
    73   37   38 2    
    74   37   39 am   BACKBONE|DICT|INTERRES
    75   39   40 1    
    76   39  105 1    
    77   40   41 1    
    78   40   42 1    
    79   40  106 1    
    80   41  107 1    
    81   41  108 1    
    82   41  109 1    
    83   42   43 2    
    84   42   44 am   BACKBONE|DICT|INTERRES
    85   44   45 1    
    86   44  110 1    
    87   45   46 1    
    88   45   47 1    
    89   45  111 1    
    90   46  112 1    
    91   46  113 1    
    92   46  114 1    
    93   47   48 2    
    94   47   49 am   BACKBONE|DICT|INTERRES
    95   49   50 1    
    96   49  115 1    
    97   50   51 1    
    98   50   52 1    
    99   50  116 1    
   100   51  117 1    
   101   51  118 1    
   102   51  119 1    
   103   52   53 2    
   104   52   54 am   BACKBONE|DICT|INTERRES
   105   54   55 1    
   106   54  120 1    
   107   55   56 1    
   108   55   57 1    
   109   55  121 1    
   110   56  122 1    
   111   56  123 1    
   112   56  124 1    
   113   57   58 2    
   114   57   59 am   BACKBONE|DICT|INTERRES
   115   59   60 1    
   116   59  125 1    
   117   60   61 1    
   118   60   62 1    
   119   60  126 1    
   120   61  127 1    
   121   61  128 1    
   122   61  129 1    
   123   62   63 2    
   124   62   64 am   BACKBONE|DICT|INTERRES
   125   64   65 1    
   126   64  130 1    
   127   65   66 1    
   128   65   69 1    
   129   65  131 1    
   130   66   67 am   BACKBONE|DICT|INTERRES
   131   66   68 2    
   132   67  132 1    
   133   67  133 1    
   134   69   70 1    
   135   69  134 1    
   136   69  135 1    
   137   70   71 1    
   138   71  136 1    
   139   71  137 1    
@<TRIPOS>SUBSTRUCTURE
     1 UNK         1 GROUP             0       ****    0 ROOT    
