@<TRIPOS>MOLECULE
3R136
137   139    1
SMALL
USER_CHARGES


@<TRIPOS>ATOM
      1 CA         31.7242   20.0564   -3.3852 C.3       0 UNK        -0.1979 
      2 C          31.6527   21.5745   -3.4547 C.2       0 UNK         0.4864 
      3 O          31.6464   22.1372   -4.5502 O.2       0 UNK        -0.5359 
      4 N          31.5979   22.2410   -2.2935 N.am      1 UNK        -0.4318 
      5 CA         31.5113   23.7015   -2.1605 C.3       1 UNK         0.0824 
      6 C6         31.9512   24.1836   -0.7556 C.3       12 UNK        -0.0944 
      7 S7         31.1248   23.3290    0.6336 S.3       12 UNK        -0.2672 
      8 C8         29.9203   24.5724    1.1899 C.3       12 UNK         0.0333 
      9 C9         29.7852   24.5499    2.7037 C.ar      12 UNK        -0.0807 
     10 C10        30.6545   25.3112    3.4913 C.ar      12 UNK        -0.0894 
     11 C11        30.5259   25.3221    4.8825 C.ar      12 UNK        -0.0804 
     12 C12        29.5227   24.5611    5.4882 C.ar      12 UNK        -0.0824 
     13 C13        28.6409   23.8030    4.7111 C.ar      12 UNK        -0.0762 
     14 C14        28.7857   23.7886    3.3186 C.ar      12 UNK        -0.0782 
     15 C15        27.4908   23.0592    5.3749 C.3       12 UNK         0.0230 
     16 S16        25.8815   23.8487    5.0298 S.3       12 UNK        -0.2608 
     17 C17        26.1227   25.5550    5.6496 C.3       12 UNK        -0.0989 
     18 CA         26.6741   26.5141    4.5577 C.3       5 UNK         0.0716 
     19 N          25.8883   26.5084    3.3208 N.am      5 UNK        -0.4135 
     20 C          24.6861   27.0495    3.0996 C.2       4 UNK         0.5031 
     21 O          24.0603   27.7011    3.9378 O.2       4 UNK        -0.5229 
     22 CA         24.0854   26.8127    1.6952 C.3       4 UNK         0.0329 
     23 CB         22.7886   27.6124    1.4662 C.3       4 UNK        -0.2001 
     24 N          25.0156   27.0988    0.5938 N.am      4 UNK        -0.4303 
     25 C          26.0576   26.3424    0.2226 C.2       3 UNK         0.5044 
     26 O          26.4178   25.3303    0.8293 O.2       3 UNK        -0.5152 
     27 CA         26.8591   26.8352   -0.9950 C.3       3 UNK         0.0319 
     28 CB         27.9388   27.8339   -0.5506 C.3       3 UNK        -0.2001 
     29 N          27.5003   25.7442   -1.7333 N.am      3 UNK        -0.4354 
     30 C          26.8683   24.7408   -2.3545 C.2       2 UNK         0.4964 
     31 O          25.6412   24.6381   -2.3989 O.2       2 UNK        -0.5047 
     32 CA         27.7187   23.6674   -3.0658 C.3       2 UNK         0.0288 
     33 CB         27.7387   23.9152   -4.5875 C.3       2 UNK        -0.2113 
     34 N          29.0863   23.4497   -2.5616 N.am      2 UNK        -0.4145 
     35 C          30.1399   24.2827   -2.5712 C.2       1 UNK         0.5006 
     36 O          30.0706   25.4702   -2.8907 O.2       1 UNK        -0.5103 
     37 C          26.9871   27.9344    5.0679 C.2       5 UNK         0.5055 
     38 O          26.8485   28.2226    6.2586 O.2       5 UNK        -0.5220 
     39 N          27.4157   28.7887    4.1350 N.am      6 UNK        -0.4450 
     40 CA         27.8423   30.1672    4.3233 C.3       6 UNK         0.0367 
     41 CB         26.6188   31.0745    4.5608 C.3       6 UNK        -0.1929 
     42 C          28.6014   30.5804    3.0561 C.2       6 UNK         0.5070 
     43 O          28.5788   29.8445    2.0650 O.2       6 UNK        -0.5237 
     44 N          29.2419   31.7552    3.1019 N.am      7 UNK        -0.4739 
     45 CA         29.9428   32.4597    2.0155 C.3       7 UNK         0.0276 
     46 CB         28.9861   32.7966    0.8548 C.3       7 UNK        -0.1927 
     47 C          31.2195   31.7779    1.4901 C.2       7 UNK         0.5013 
     48 O          32.2270   32.4679    1.3301 O.2       7 UNK        -0.5193 
     49 N          31.1730   30.4615    1.2451 N.am      8 UNK        -0.4253 
     50 CA         32.2656   29.6131    0.7533 C.3       8 UNK         0.0242 
     51 CB         31.7493   28.1715    0.6066 C.3       8 UNK        -0.2000 
     52 C          33.4979   29.6761    1.6722 C.2       8 UNK         0.4948 
     53 O          33.5037   29.0380    2.7266 O.2       8 UNK        -0.5275 
     54 N          34.4704   30.5244    1.2988 N.am      9 UNK        -0.4246 
     55 CA         35.6416   30.9400    2.0892 C.3       9 UNK         0.0261 
     56 CB         36.6457   29.7746    2.2156 C.3       9 UNK        -0.1959 
     57 C          35.2666   31.5428    3.4626 C.2       9 UNK         0.5033 
     58 O          36.0385   31.4213    4.4164 O.2       9 UNK        -0.5390 
     59 N          34.0514   32.1101    3.5570 N.am      10 UNK        -0.4215 
     60 CA         33.3414   32.5255    4.7756 C.3       10 UNK         0.0240 
     61 CB         33.9896   33.7978    5.3601 C.3       10 UNK        -0.1982 
     62 C          33.1885   31.4063    5.8341 C.2       10 UNK         0.4970 
     63 O          32.9832   31.7176    7.0084 O.2       10 UNK        -0.4916 
     64 N          33.3218   30.1368    5.4172 N.am      11 UNK        -0.4279 
     65 CA         33.4984   28.9541    6.2742 C.3       11 UNK         0.1003 
     66 C          34.7506   29.0156    7.2062 C.2       11 UNK         0.5709 
     67 N          35.7847   29.7809    6.8719 N.am      11 UNK        -0.7358 
     68 O          34.8097   28.3376    8.2295 O.2       11 UNK        -0.4999 
     69 C69        32.1890   28.5250    6.9969 C.3       12 UNK        -0.0954 
     70 S70        30.9397   27.8932    5.8277 S.3       12 UNK        -0.2268 
     71 C71        31.4715   26.1541    5.7318 C.3       12 UNK         0.0203 
     72 H72        30.8709   19.6165   -3.9009 H         1 UNK         0.0888 
     73 H73        32.6344   19.7014   -3.8678 H         1 UNK         0.0888 
     74 H74        31.7226   19.6945   -2.3572 H         1 UNK         0.0888 
     75 H75        31.6144   21.7319   -1.4199 H         1 UNK         0.3017 
     76 H76        32.2246   24.1243   -2.8718 H         1 UNK         0.0873 
     77 H77        31.8438   25.2654   -0.6626 H         1 UNK         0.0745 
     78 H78        33.0209   23.9998   -0.6434 H         1 UNK         0.0745 
     79 H79        28.9589   24.3758    0.7134 H         1 UNK         0.0705 
     80 H80        30.2187   25.5710    0.8712 H         1 UNK         0.0705 
     81 H81        31.4310   25.9000    3.0223 H         1 UNK         0.1334 
     82 H82        29.4108   24.5832    6.5638 H         1 UNK         0.1417 
     83 H83        28.0967   23.2149    2.7130 H         1 UNK         0.1562 
     84 H84        27.6355   22.9996    6.4548 H         1 UNK         0.0748 
     85 H85        27.4674   22.0309    5.0116 H         1 UNK         0.0748 
     86 H86        26.7904   25.5266    6.5126 H         1 UNK         0.0940 
     87 H87        25.1642   25.9223    6.0204 H         1 UNK         0.0940 
     88 H88        27.6486   26.1480    4.2498 H         1 UNK         0.0703 
     89 H89        26.2855   25.9737    2.5512 H         1 UNK         0.3081 
     90 H90        23.8278   25.7524    1.6472 H         1 UNK         0.0719 
     91 H91        22.9650   28.6878    1.5122 H         1 UNK         0.0809 
     92 H92        22.3463   27.3844    0.4962 H         1 UNK         0.0809 
     93 H93        22.0401   27.3718    2.2225 H         1 UNK         0.0809 
     94 H94        24.8272   27.9400    0.0674 H         1 UNK         0.2990 
     95 H95        26.1758   27.3379   -1.6826 H         1 UNK         0.0690 
     96 H96        28.5417   28.1748   -1.3925 H         1 UNK         0.0788 
     97 H97        28.6100   27.3993    0.1910 H         1 UNK         0.0788 
     98 H98        27.4879   28.7189   -0.1004 H         1 UNK         0.0788 
     99 H99        28.5093   25.7807   -1.8309 H         1 UNK         0.2993 
    100 H100       27.1983   22.7228   -2.8982 H         1 UNK         0.0949 
    101 H101       28.2550   23.1116   -5.1132 H         1 UNK         0.0767 
    102 H102       26.7256   23.9663   -4.9891 H         1 UNK         0.0767 
    103 H103       28.2344   24.8533   -4.8395 H         1 UNK         0.0767 
    104 H104       29.2648   22.5143   -2.2237 H         1 UNK         0.3013 
    105 H105       27.5400   28.4702    3.1804 H         1 UNK         0.3121 
    106 H106       28.5242   30.2173    5.1748 H         1 UNK         0.0774 
    107 H107       26.9155   32.1148    4.6976 H         1 UNK         0.0815 
    108 H108       25.9256   31.0395    3.7192 H         1 UNK         0.0815 
    109 H109       26.0699   30.7796    5.4551 H         1 UNK         0.0815 
    110 H110       29.2158   32.2584    3.9784 H         1 UNK         0.2987 
    111 H111       30.2641   33.4087    2.4486 H         1 UNK         0.0949 
    112 H112       28.6196   31.9014    0.3515 H         1 UNK         0.0806 
    113 H113       28.1220   33.3613    1.2048 H         1 UNK         0.0806 
    114 H114       29.4877   33.4067    0.1023 H         1 UNK         0.0806 
    115 H115       30.2842   30.0031    1.4364 H         1 UNK         0.3010 
    116 H116       32.5512   29.9719   -0.2375 H         1 UNK         0.0829 
    117 H117       30.9792   28.1038   -0.1614 H         1 UNK         0.0813 
    118 H118       32.5542   27.4937    0.3194 H         1 UNK         0.0813 
    119 H119       31.3264   27.8016    1.5412 H         1 UNK         0.0813 
    120 H120       34.3316   31.0396    0.4393 H         1 UNK         0.3038 
    121 H121       36.1263   31.7407    1.5290 H         1 UNK         0.0769 
    122 H122       37.5735   30.1048    2.6845 H         1 UNK         0.0811 
    123 H123       36.9058   29.3668    1.2390 H         1 UNK         0.0811 
    124 H124       36.2463   28.9618    2.8233 H         1 UNK         0.0811 
    125 H125       33.5060   32.1798    2.6997 H         1 UNK         0.3204 
    126 H126       32.3283   32.7818    4.4632 H         1 UNK         0.0748 
    127 H127       33.3959   34.2022    6.1809 H         1 UNK         0.0771 
    128 H128       34.9890   33.5985    5.7484 H         1 UNK         0.0771 
    129 H129       34.0726   34.5818    4.6074 H         1 UNK         0.0771 
    130 H130       33.4520   29.9524    4.4264 H         1 UNK         0.2980 
    131 H131       33.7555   28.1529    5.5813 H         1 UNK         0.0545 
    132 H132       35.7761   30.3368    6.0215 H         1 UNK         0.3459 
    133 H133       36.5914   29.8037    7.4744 H         1 UNK         0.3459 
    134 H134       32.3764   27.7446    7.7358 H         1 UNK         0.0616 
    135 H135       31.7608   29.3604    7.5518 H         1 UNK         0.0616 
    136 H136       31.5341   25.7370    6.7381 H         1 UNK         0.0634 
    137 H137       32.4781   26.1050    5.3142 H         1 UNK         0.0634 
@<TRIPOS>BOND
     1    1    2 1    
     2    1   72 1    
     3    1   73 1    
     4    1   74 1    
     5    2    3 2    
     6    2    4 am   BACKBONE|DICT|INTERRES
     7    4    5 1    
     8    4   75 1    
     9    5    6 1    
    10    5   35 1    
    11    5   76 1    
    12    6    7 1    
    13    6   77 1    
    14    6   78 1    
    15    7    8 1    
    16    8    9 1    
    17    8   79 1    
    18    8   80 1    
    19    9   10 ar   
    20    9   14 ar   
    21   10   11 ar   
    22   10   81 1    
    23   11   12 ar   
    24   11   71 1    
    25   12   13 ar   
    26   12   82 1    
    27   13   14 ar   
    28   13   15 1    
    29   14   83 1    
    30   15   16 1    
    31   15   84 1    
    32   15   85 1    
    33   16   17 1    
    34   17   18 1    
    35   17   86 1    
    36   17   87 1    
    37   18   19 1    
    38   18   37 1    
    39   18   88 1    
    40   19   20 am   BACKBONE|DICT|INTERRES
    41   19   89 1    
    42   20   21 2    
    43   20   22 1    
    44   22   23 1    
    45   22   24 1    
    46   22   90 1    
    47   23   91 1    
    48   23   92 1    
    49   23   93 1    
    50   24   25 am   BACKBONE|DICT|INTERRES
    51   24   94 1    
    52   25   26 2    
    53   25   27 1    
    54   27   28 1    
    55   27   29 1    
    56   27   95 1    
    57   28   96 1    
    58   28   97 1    
    59   28   98 1    
    60   29   30 am   BACKBONE|DICT|INTERRES
    61   29   99 1    
    62   30   31 2    
    63   30   32 1    
    64   32   33 1    
    65   32   34 1    
    66   32  100 1    
    67   33  101 1    
    68   33  102 1    
    69   33  103 1    
    70   34   35 am   BACKBONE|DICT|INTERRES
    71   34  104 1    
    72   35   36 2    
    73   37   38 2    
    74   37   39 am   BACKBONE|DICT|INTERRES
    75   39   40 1    
    76   39  105 1    
    77   40   41 1    
    78   40   42 1    
    79   40  106 1    
    80   41  107 1    
    81   41  108 1    
    82   41  109 1    
    83   42   43 2    
    84   42   44 am   BACKBONE|DICT|INTERRES
    85   44   45 1    
    86   44  110 1    
    87   45   46 1    
    88   45   47 1    
    89   45  111 1    
    90   46  112 1    
    91   46  113 1    
    92   46  114 1    
    93   47   48 2    
    94   47   49 am   BACKBONE|DICT|INTERRES
    95   49   50 1    
    96   49  115 1    
    97   50   51 1    
    98   50   52 1    
    99   50  116 1    
   100   51  117 1    
   101   51  118 1    
   102   51  119 1    
   103   52   53 2    
   104   52   54 am   BACKBONE|DICT|INTERRES
   105   54   55 1    
   106   54  120 1    
   107   55   56 1    
   108   55   57 1    
   109   55  121 1    
   110   56  122 1    
   111   56  123 1    
   112   56  124 1    
   113   57   58 2    
   114   57   59 am   BACKBONE|DICT|INTERRES
   115   59   60 1    
   116   59  125 1    
   117   60   61 1    
   118   60   62 1    
   119   60  126 1    
   120   61  127 1    
   121   61  128 1    
   122   61  129 1    
   123   62   63 2    
   124   62   64 am   BACKBONE|DICT|INTERRES
   125   64   65 1    
   126   64  130 1    
   127   65   66 1    
   128   65   69 1    
   129   65  131 1    
   130   66   67 am   BACKBONE|DICT|INTERRES
   131   66   68 2    
   132   67  132 1    
   133   67  133 1    
   134   69   70 1    
   135   69  134 1    
   136   69  135 1    
   137   70   71 1    
   138   71  136 1    
   139   71  137 1    
@<TRIPOS>SUBSTRUCTURE
     1 UNK         1 GROUP             0       ****    0 ROOT    
