@<TRIPOS>MOLECULE
3R136
137   139    1
SMALL
USER_CHARGES


@<TRIPOS>ATOM
      1 CA         29.9970   25.1897    2.1412 C.3       0 UNK        -0.1979 
      2 C          29.7631   24.5219    0.8063 C.2       0 UNK         0.4864 
      3 O          28.8881   24.9357    0.0417 O.2       0 UNK        -0.5359 
      4 N          30.5762   23.4994    0.5216 N.am      1 UNK        -0.4318 
      5 CA         30.5618   22.6224   -0.6548 C.3       1 UNK         0.0824 
      6 C6         31.4107   21.3530   -0.3843 C.3       12 UNK        -0.0944 
      7 S7         30.7671   20.3522    1.0042 S.3       12 UNK        -0.2672 
      8 C8         31.8425   20.8127    2.4129 C.3       12 UNK         0.0333 
      9 C9         31.1920   21.7823    3.4020 C.ar      12 UNK        -0.0807 
     10 C10        31.9273   22.8531    3.9274 C.ar      12 UNK        -0.0894 
     11 C11        31.3616   23.7092    4.8816 C.ar      12 UNK        -0.0804 
     12 C12        30.0578   23.4736    5.3272 C.ar      12 UNK        -0.0824 
     13 C13        29.2999   22.4328    4.7886 C.ar      12 UNK        -0.0762 
     14 C14        29.8758   21.5838    3.8382 C.ar      12 UNK        -0.0782 
     15 C15        27.8561   22.2333    5.2228 C.3       12 UNK         0.0230 
     16 S16        26.7230   23.3205    4.2948 S.3       12 UNK        -0.2608 
     17 C17        26.7109   24.8507    5.2981 C.3       12 UNK        -0.0989 
     18 CA         27.2176   26.1040    4.5317 C.3       5 UNK         0.0716 
     19 N          26.4478   26.3263    3.3018 N.am      5 UNK        -0.4135 
     20 C          26.7780   27.1237    2.2786 C.2       4 UNK         0.5031 
     21 O          27.7675   27.8610    2.2554 O.2       4 UNK        -0.5229 
     22 CA         25.8381   27.0979    1.0706 C.3       4 UNK         0.0329 
     23 CB         24.6717   28.0838    1.2573 C.3       4 UNK        -0.2001 
     24 N          26.6115   27.4658   -0.1099 N.am      4 UNK        -0.4303 
     25 C          26.4060   27.0183   -1.3524 C.2       3 UNK         0.5044 
     26 O          25.4930   26.2542   -1.6682 O.2       3 UNK        -0.5152 
     27 CA         27.3936   27.4911   -2.4253 C.3       3 UNK         0.0319 
     28 CB         27.8175   28.9665   -2.2574 C.3       3 UNK        -0.2001 
     29 N          28.5577   26.6061   -2.4206 N.am      3 UNK        -0.4354 
     30 C          29.3483   26.3861   -3.4848 C.2       2 UNK         0.4964 
     31 O          29.1761   26.9316   -4.5758 O.2       2 UNK        -0.5047 
     32 CA         30.5251   25.4016   -3.3441 C.3       2 UNK         0.0288 
     33 CB         31.8661   26.1568   -3.2594 C.3       2 UNK        -0.2113 
     34 N          30.3650   24.5165   -2.1939 N.am      2 UNK        -0.4145 
     35 C          30.9677   23.3475   -1.9650 C.2       1 UNK         0.5006 
     36 O          31.7971   22.8483   -2.7286 O.2       1 UNK        -0.5103 
     37 C          27.2500   27.3574    5.4354 C.2       5 UNK         0.5055 
     38 O          26.6140   27.3705    6.4919 O.2       5 UNK        -0.5220 
     39 N          27.9833   28.3888    5.0071 N.am      6 UNK        -0.4450 
     40 CA         28.2065   29.6311    5.7333 C.3       6 UNK         0.0367 
     41 CB         27.1015   30.6451    5.3899 C.3       6 UNK        -0.1929 
     42 C          29.5958   30.1802    5.3936 C.2       6 UNK         0.5070 
     43 O          30.1013   29.9657    4.2841 O.2       6 UNK        -0.5237 
     44 N          30.1784   30.8924    6.3665 N.am      7 UNK        -0.4739 
     45 CA         31.4676   31.5754    6.2615 C.3       7 UNK         0.0276 
     46 CB         31.8603   32.1369    7.6367 C.3       7 UNK        -0.1927 
     47 C          31.4258   32.6944    5.2129 C.2       7 UNK         0.5013 
     48 O          30.4296   33.4170    5.1387 O.2       7 UNK        -0.5193 
     49 N          32.4896   32.7922    4.4062 N.am      8 UNK        -0.4253 
     50 CA         32.6975   33.7139    3.2788 C.3       8 UNK         0.0242 
     51 CB         32.6099   35.1902    3.7152 C.3       8 UNK        -0.2000 
     52 C          31.8056   33.4356    2.0533 C.2       8 UNK         0.4948 
     53 O          32.2458   33.7015    0.9343 O.2       8 UNK        -0.5275 
     54 N          30.6019   32.8807    2.2610 N.am      9 UNK        -0.4246 
     55 CA         29.7167   32.3680    1.2123 C.3       9 UNK         0.0261 
     56 CB         28.3536   31.9877    1.8119 C.3       9 UNK        -0.1959 
     57 C          30.3409   31.1675    0.4842 C.2       9 UNK         0.5033 
     58 O          30.3124   31.1292   -0.7465 O.2       9 UNK        -0.5390 
     59 N          30.9308   30.2440    1.2555 N.am      10 UNK        -0.4215 
     60 CA         31.7376   29.1384    0.7403 C.3       10 UNK         0.0240 
     61 CB         30.8539   28.0374    0.1256 C.3       10 UNK        -0.1982 
     62 C          32.7232   28.5807    1.7763 C.2       10 UNK         0.4970 
     63 O          33.8097   28.1627    1.3734 O.2       10 UNK        -0.4916 
     64 N          32.3684   28.5786    3.0701 N.am      11 UNK        -0.4279 
     65 CA         33.2761   28.1432    4.1462 C.3       11 UNK         0.1003 
     66 C          34.3562   29.2131    4.4661 C.2       11 UNK         0.5709 
     67 N          35.5103   28.7977    4.9686 N.am      11 UNK        -0.7358 
     68 O          34.1459   30.4151    4.3023 O.2       11 UNK        -0.4999 
     69 C69        32.5228   27.7113    5.4325 C.3       12 UNK        -0.0954 
     70 S70        31.2377   26.4639    5.1116 S.3       12 UNK        -0.2268 
     71 C71        32.1389   24.9077    5.4132 C.3       12 UNK         0.0203 
     72 H72        29.6390   26.2129    2.1484 H         1 UNK         0.0888 
     73 H73        29.4653   24.6334    2.9078 H         1 UNK         0.0888 
     74 H74        31.0574   25.2107    2.3894 H         1 UNK         0.0888 
     75 H75        31.2554   23.2344    1.2196 H         1 UNK         0.3017 
     76 H76        29.5285   22.3018   -0.8042 H         1 UNK         0.0873 
     77 H77        32.4564   21.6125   -0.2102 H         1 UNK         0.0745 
     78 H78        31.4070   20.7028   -1.2613 H         1 UNK         0.0745 
     79 H79        32.7898   21.2081    2.0443 H         1 UNK         0.0705 
     80 H80        32.0919   19.9010    2.9571 H         1 UNK         0.0705 
     81 H81        32.9433   23.0201    3.5962 H         1 UNK         0.1334 
     82 H82        29.6198   24.1324    6.0638 H         1 UNK         0.1417 
     83 H83        29.2959   20.7642    3.4363 H         1 UNK         0.1562 
     84 H84        27.7516   22.3981    6.2961 H         1 UNK         0.0748 
     85 H85        27.5578   21.1981    5.0505 H         1 UNK         0.0748 
     86 H86        27.3027   24.6976    6.2018 H         1 UNK         0.0940 
     87 H87        25.6865   25.0065    5.6427 H         1 UNK         0.0940 
     88 H88        28.2522   25.9157    4.2499 H         1 UNK         0.0703 
     89 H89        25.6066   25.7740    3.2227 H         1 UNK         0.3081 
     90 H90        25.4516   26.0829    0.9533 H         1 UNK         0.0719 
     91 H91        24.0794   27.8307    2.1374 H         1 UNK         0.0809 
     92 H92        25.0280   29.1070    1.3853 H         1 UNK         0.0809 
     93 H93        23.9993   28.0687    0.3994 H         1 UNK         0.0809 
     94 H94        27.4243   28.0335    0.0946 H         1 UNK         0.2990 
     95 H95        26.8801   27.3952   -3.3848 H         1 UNK         0.0690 
     96 H96        28.3931   29.1341   -1.3477 H         1 UNK         0.0788 
     97 H97        26.9453   29.6202   -2.2174 H         1 UNK         0.0788 
     98 H98        28.4288   29.2996   -3.0961 H         1 UNK         0.0788 
     99 H99        28.7045   26.1073   -1.5490 H         1 UNK         0.2993 
    100 H100       30.5285   24.7848   -4.2453 H         1 UNK         0.0949 
    101 H101       31.9361   26.7534   -2.3502 H         1 UNK         0.0767 
    102 H102       32.7127   25.4704   -3.2746 H         1 UNK         0.0767 
    103 H103       31.9877   26.8347   -4.1053 H         1 UNK         0.0767 
    104 H104       29.7003   24.8024   -1.4778 H         1 UNK         0.3013 
    105 H105       28.4340   28.3290    4.0969 H         1 UNK         0.3121 
    106 H106       28.1814   29.4264    6.8061 H         1 UNK         0.0774 
    107 H107       27.2932   31.6124    5.8564 H         1 UNK         0.0815 
    108 H108       27.0227   30.8084    4.3157 H         1 UNK         0.0815 
    109 H109       26.1294   30.3016    5.7439 H         1 UNK         0.0815 
    110 H110       29.6669   31.0424    7.2241 H         1 UNK         0.2987 
    111 H111       32.2140   30.8399    5.9658 H         1 UNK         0.0949 
    112 H112       31.9333   31.3459    8.3835 H         1 UNK         0.0806 
    113 H113       32.8326   32.6297    7.5931 H         1 UNK         0.0806 
    114 H114       31.1383   32.8726    7.9937 H         1 UNK         0.0806 
    115 H115       33.2116   32.0802    4.5012 H         1 UNK         0.3010 
    116 H116       33.7232   33.5335    2.9522 H         1 UNK         0.0829 
    117 H117       33.2745   35.3966    4.5541 H         1 UNK         0.0813 
    118 H118       32.9030   35.8520    2.8992 H         1 UNK         0.0813 
    119 H119       31.5988   35.4731    4.0089 H         1 UNK         0.0813 
    120 H120       30.3002   32.7689    3.2230 H         1 UNK         0.3038 
    121 H121       29.5628   33.1666    0.4835 H         1 UNK         0.0769 
    122 H122       27.9030   32.8237    2.3469 H         1 UNK         0.0811 
    123 H123       27.6564   31.6878    1.0284 H         1 UNK         0.0811 
    124 H124       28.4390   31.1494    2.5029 H         1 UNK         0.0811 
    125 H125       30.8801   30.3530    2.2619 H         1 UNK         0.3204 
    126 H126       32.3649   29.5375   -0.0604 H         1 UNK         0.0748 
    127 H127       30.5442   28.3110   -0.8822 H         1 UNK         0.0771 
    128 H128       31.3842   27.0875    0.0480 H         1 UNK         0.0771 
    129 H129       29.9518   27.8744    0.7114 H         1 UNK         0.0771 
    130 H130       31.4672   28.9316    3.3748 H         1 UNK         0.2980 
    131 H131       33.8045   27.2587    3.7842 H         1 UNK         0.0545 
    132 H132       35.6949   27.8183    5.1186 H         1 UNK         0.3459 
    133 H133       36.2169   29.4801    5.1942 H         1 UNK         0.3459 
    134 H134       33.2192   27.3153    6.1738 H         1 UNK         0.0616 
    135 H135       32.0385   28.5650    5.9034 H         1 UNK         0.0616 
    136 H136       33.1203   24.9673    4.9404 H         1 UNK         0.0634 
    137 H137       32.3089   24.7881    6.4839 H         1 UNK         0.0634 
@<TRIPOS>BOND
     1    1    2 1    
     2    1   72 1    
     3    1   73 1    
     4    1   74 1    
     5    2    3 2    
     6    2    4 am   BACKBONE|DICT|INTERRES
     7    4    5 1    
     8    4   75 1    
     9    5    6 1    
    10    5   35 1    
    11    5   76 1    
    12    6    7 1    
    13    6   77 1    
    14    6   78 1    
    15    7    8 1    
    16    8    9 1    
    17    8   79 1    
    18    8   80 1    
    19    9   10 ar   
    20    9   14 ar   
    21   10   11 ar   
    22   10   81 1    
    23   11   12 ar   
    24   11   71 1    
    25   12   13 ar   
    26   12   82 1    
    27   13   14 ar   
    28   13   15 1    
    29   14   83 1    
    30   15   16 1    
    31   15   84 1    
    32   15   85 1    
    33   16   17 1    
    34   17   18 1    
    35   17   86 1    
    36   17   87 1    
    37   18   19 1    
    38   18   37 1    
    39   18   88 1    
    40   19   20 am   BACKBONE|DICT|INTERRES
    41   19   89 1    
    42   20   21 2    
    43   20   22 1    
    44   22   23 1    
    45   22   24 1    
    46   22   90 1    
    47   23   91 1    
    48   23   92 1    
    49   23   93 1    
    50   24   25 am   BACKBONE|DICT|INTERRES
    51   24   94 1    
    52   25   26 2    
    53   25   27 1    
    54   27   28 1    
    55   27   29 1    
    56   27   95 1    
    57   28   96 1    
    58   28   97 1    
    59   28   98 1    
    60   29   30 am   BACKBONE|DICT|INTERRES
    61   29   99 1    
    62   30   31 2    
    63   30   32 1    
    64   32   33 1    
    65   32   34 1    
    66   32  100 1    
    67   33  101 1    
    68   33  102 1    
    69   33  103 1    
    70   34   35 am   BACKBONE|DICT|INTERRES
    71   34  104 1    
    72   35   36 2    
    73   37   38 2    
    74   37   39 am   BACKBONE|DICT|INTERRES
    75   39   40 1    
    76   39  105 1    
    77   40   41 1    
    78   40   42 1    
    79   40  106 1    
    80   41  107 1    
    81   41  108 1    
    82   41  109 1    
    83   42   43 2    
    84   42   44 am   BACKBONE|DICT|INTERRES
    85   44   45 1    
    86   44  110 1    
    87   45   46 1    
    88   45   47 1    
    89   45  111 1    
    90   46  112 1    
    91   46  113 1    
    92   46  114 1    
    93   47   48 2    
    94   47   49 am   BACKBONE|DICT|INTERRES
    95   49   50 1    
    96   49  115 1    
    97   50   51 1    
    98   50   52 1    
    99   50  116 1    
   100   51  117 1    
   101   51  118 1    
   102   51  119 1    
   103   52   53 2    
   104   52   54 am   BACKBONE|DICT|INTERRES
   105   54   55 1    
   106   54  120 1    
   107   55   56 1    
   108   55   57 1    
   109   55  121 1    
   110   56  122 1    
   111   56  123 1    
   112   56  124 1    
   113   57   58 2    
   114   57   59 am   BACKBONE|DICT|INTERRES
   115   59   60 1    
   116   59  125 1    
   117   60   61 1    
   118   60   62 1    
   119   60  126 1    
   120   61  127 1    
   121   61  128 1    
   122   61  129 1    
   123   62   63 2    
   124   62   64 am   BACKBONE|DICT|INTERRES
   125   64   65 1    
   126   64  130 1    
   127   65   66 1    
   128   65   69 1    
   129   65  131 1    
   130   66   67 am   BACKBONE|DICT|INTERRES
   131   66   68 2    
   132   67  132 1    
   133   67  133 1    
   134   69   70 1    
   135   69  134 1    
   136   69  135 1    
   137   70   71 1    
   138   71  136 1    
   139   71  137 1    
@<TRIPOS>SUBSTRUCTURE
     1 UNK         1 GROUP             0       ****    0 ROOT    
