@<TRIPOS>MOLECULE
3R136
137   139    1
SMALL
USER_CHARGES


@<TRIPOS>ATOM
      1 CA         27.9283   24.2531    2.2265 C.3       0 UNK        -0.1979 
      2 C          28.5120   23.7475    0.9159 C.2       0 UNK         0.4864 
      3 O          28.0725   22.7156    0.4085 O.2       0 UNK        -0.5359 
      4 N          29.4976   24.4684    0.3640 N.am      1 UNK        -0.4318 
      5 CA         30.2041   24.1078   -0.8743 C.3       1 UNK         0.0824 
      6 C6         31.6141   24.7476   -0.9356 C.3       12 UNK        -0.0944 
      7 S7         32.7000   24.0815    0.3732 S.3       12 UNK        -0.2672 
      8 C8         32.8343   25.4745    1.5361 C.3       12 UNK         0.0333 
      9 C9         32.7392   24.9967    2.9760 C.ar      12 UNK        -0.0807 
     10 C10        33.8293   24.3711    3.5866 C.ar      12 UNK        -0.0894 
     11 C11        33.7479   23.9299    4.9119 C.ar      12 UNK        -0.0804 
     12 C12        32.5640   24.1292    5.6311 C.ar      12 UNK        -0.0824 
     13 C13        31.4632   24.7453    5.0257 C.ar      12 UNK        -0.0762 
     14 C14        31.5582   25.1757    3.6997 C.ar      12 UNK        -0.0782 
     15 C15        30.1531   24.9147    5.7790 C.3       12 UNK         0.0230 
     16 S16        29.8515   26.6578    6.2151 S.3       12 UNK        -0.2608 
     17 C17        28.1128   26.8836    5.7010 C.3       12 UNK        -0.0989 
     18 CA         28.0013   27.6631    4.3655 C.3       5 UNK         0.0716 
     19 N          26.7763   27.3271    3.6345 N.am      5 UNK        -0.4135 
     20 C          26.5104   27.7262    2.3838 C.2       4 UNK         0.5031 
     21 O          27.3145   28.3315    1.6660 O.2       4 UNK        -0.5229 
     22 CA         25.1033   27.4216    1.8587 C.3       4 UNK         0.0329 
     23 CB         24.0605   28.3255    2.5523 C.3       4 UNK        -0.2001 
     24 N          25.0964   27.6259    0.4114 N.am      4 UNK        -0.4303 
     25 C          24.1041   27.3134   -0.4298 C.2       3 UNK         0.5044 
     26 O          23.0388   26.8010   -0.0834 O.2       3 UNK        -0.5152 
     27 CA         24.3442   27.6180   -1.9196 C.3       3 UNK         0.0319 
     28 CB         24.2430   29.1301   -2.1850 C.3       3 UNK        -0.2001 
     29 N          25.6211   27.1167   -2.4409 N.am      3 UNK        -0.4354 
     30 C          26.0175   25.8352   -2.4388 C.2       2 UNK         0.4964 
     31 O          25.3702   24.9140   -1.9411 O.2       2 UNK        -0.5047 
     32 CA         27.3656   25.5130   -3.0960 C.3       2 UNK         0.0288 
     33 CB         27.9057   26.6059   -4.0470 C.3       2 UNK        -0.2113 
     34 N          28.3204   25.2121   -2.0332 N.am      2 UNK        -0.4145 
     35 C          29.3891   24.4139   -2.1521 C.2       1 UNK         0.5006 
     36 O          29.7403   23.9067   -3.2193 O.2       1 UNK        -0.5103 
     37 C          28.0841   29.1873    4.5853 C.2       5 UNK         0.5055 
     38 O          27.0697   29.8107    4.9063 O.2       5 UNK        -0.5220 
     39 N          29.2733   29.7540    4.3573 N.am      6 UNK        -0.4450 
     40 CA         29.6380   31.1777    4.3748 C.3       6 UNK         0.0367 
     41 CB         29.2974   31.8519    5.7180 C.3       6 UNK        -0.1929 
     42 C          29.0928   31.9808    3.1796 C.2       6 UNK         0.5070 
     43 O          29.7619   32.9188    2.7466 O.2       6 UNK        -0.5237 
     44 N          27.9264   31.5973    2.6413 N.am      7 UNK        -0.4739 
     45 CA         27.3601   32.1391    1.4034 C.3       7 UNK         0.0276 
     46 CB         25.8978   31.6896    1.2541 C.3       7 UNK        -0.1927 
     47 C          28.1880   31.7216    0.1780 C.2       7 UNK         0.5013 
     48 O          28.5230   32.5725   -0.6467 O.2       7 UNK        -0.5193 
     49 N          28.5223   30.4256    0.1027 N.am      8 UNK        -0.4253 
     50 CA         29.4567   29.8689   -0.8737 C.3       8 UNK         0.0242 
     51 CB         29.1970   28.3591   -1.0202 C.3       8 UNK        -0.2000 
     52 C          30.9040   30.1407   -0.4388 C.2       8 UNK         0.4948 
     53 O          31.6584   30.7846   -1.1682 O.2       8 UNK        -0.5275 
     54 N          31.2383   29.6433    0.7554 N.am      9 UNK        -0.4246 
     55 CA         32.5199   29.6943    1.4506 C.3       9 UNK         0.0261 
     56 CB         33.6351   29.0306    0.6144 C.3       9 UNK        -0.1959 
     57 C          32.3154   28.9651    2.7863 C.2       9 UNK         0.5033 
     58 O          31.2581   28.3563    2.9876 O.2       9 UNK        -0.5390 
     59 N          33.3041   29.0374    3.6793 N.am      10 UNK        -0.4215 
     60 CA         33.3098   28.3419    4.9631 C.3       10 UNK         0.0240 
     61 CB         32.6025   29.1917    6.0348 C.3       10 UNK        -0.1982 
     62 C          34.7562   28.0561    5.3691 C.2       10 UNK         0.4970 
     63 O          35.6536   28.8150    4.9936 O.2       10 UNK        -0.4916 
     64 N          34.9420   26.9955    6.1604 N.am      11 UNK        -0.4279 
     65 CA         36.2217   26.6400    6.7932 C.3       11 UNK         0.1003 
     66 C          36.5537   27.4743    8.0664 C.2       11 UNK         0.5709 
     67 N          35.6447   28.2864    8.5942 N.am      11 UNK        -0.7358 
     68 O          37.6672   27.3922    8.5797 O.2       11 UNK        -0.4999 
     69 C69        36.3040   25.1185    7.0809 C.3       12 UNK        -0.0954 
     70 S70        36.4596   24.1362    5.5532 S.3       12 UNK        -0.2268 
     71 C71        34.9139   23.1728    5.5352 C.3       12 UNK         0.0203 
     72 H72        28.0659   23.5077    3.0093 H         1 UNK         0.0888 
     73 H73        28.4023   25.1772    2.5524 H         1 UNK         0.0888 
     74 H74        26.8602   24.4372    2.1150 H         1 UNK         0.0888 
     75 H75        29.8316   25.2978    0.8303 H         1 UNK         0.3017 
     76 H76        30.3406   23.0237   -0.8724 H         1 UNK         0.0873 
     77 H77        32.0957   24.5220   -1.8893 H         1 UNK         0.0745 
     78 H78        31.5586   25.8362   -0.8790 H         1 UNK         0.0745 
     79 H79        32.0565   26.2123    1.3375 H         1 UNK         0.0705 
     80 H80        33.7885   25.9791    1.3798 H         1 UNK         0.0705 
     81 H81        34.7386   24.2118    3.0229 H         1 UNK         0.1334 
     82 H82        32.4883   23.7779    6.6513 H         1 UNK         0.1417 
     83 H83        30.7129   25.6642    3.2374 H         1 UNK         0.1562 
     84 H84        30.1481   24.3172    6.6918 H         1 UNK         0.0748 
     85 H85        29.3475   24.5238    5.1568 H         1 UNK         0.0748 
     86 H86        27.5690   27.3870    6.5034 H         1 UNK         0.0940 
     87 H87        27.6413   25.9040    5.6134 H         1 UNK         0.0940 
     88 H88        28.8291   27.3638    3.7188 H         1 UNK         0.0703 
     89 H89        26.0448   26.8821    4.1686 H         1 UNK         0.3081 
     90 H90        24.8786   26.3730    2.0631 H         1 UNK         0.0719 
     91 H91        24.2220   29.3791    2.3267 H         1 UNK         0.0809 
     92 H92        23.0441   28.0750    2.2498 H         1 UNK         0.0809 
     93 H93        24.0986   28.2188    3.6370 H         1 UNK         0.0809 
     94 H94        25.9541   28.0263    0.0529 H         1 UNK         0.2990 
     95 H95        23.5503   27.1238   -2.4837 H         1 UNK         0.0690 
     96 H96        24.2839   29.3492   -3.2522 H         1 UNK         0.0788 
     97 H97        25.0463   29.6843   -1.6975 H         1 UNK         0.0788 
     98 H98        23.2989   29.5295   -1.8114 H         1 UNK         0.0788 
     99 H99        26.2194   27.7950   -2.8893 H         1 UNK         0.2993 
    100 H100       27.2050   24.6070   -3.6851 H         1 UNK         0.0949 
    101 H101       28.1363   27.5388   -3.5361 H         1 UNK         0.0767 
    102 H102       28.8180   26.2742   -4.5432 H         1 UNK         0.0767 
    103 H103       27.1838   26.8292   -4.8338 H         1 UNK         0.0767 
    104 H104       28.0657   25.5311   -1.1097 H         1 UNK         0.3013 
    105 H105       30.0149   29.1377    4.0217 H         1 UNK         0.3121 
    106 H106       30.7245   31.1942    4.2764 H         1 UNK         0.0774 
    107 H107       29.7108   32.8604    5.7586 H         1 UNK         0.0815 
    108 H108       28.2220   31.9408    5.8725 H         1 UNK         0.0815 
    109 H109       29.7144   31.2962    6.5578 H         1 UNK         0.0815 
    110 H110       27.4236   30.8447    3.0967 H         1 UNK         0.2987 
    111 H111       27.3793   33.2294    1.4693 H         1 UNK         0.0949 
    112 H112       25.4390   32.1490    0.3776 H         1 UNK         0.0806 
    113 H113       25.8173   30.6101    1.1310 H         1 UNK         0.0806 
    114 H114       25.3014   31.9765    2.1204 H         1 UNK         0.0806 
    115 H115       28.1638   29.7866    0.8085 H         1 UNK         0.3010 
    116 H116       29.2896   30.3437   -1.8432 H         1 UNK         0.0829 
    117 H117       28.1632   28.1716   -1.3044 H         1 UNK         0.0813 
    118 H118       29.8393   27.9265   -1.7884 H         1 UNK         0.0813 
    119 H119       29.3818   27.8134   -0.0946 H         1 UNK         0.0813 
    120 H120       30.5430   29.1333    1.2886 H         1 UNK         0.3038 
    121 H121       32.7710   30.7362    1.6573 H         1 UNK         0.0769 
    122 H122       33.3350   28.0500    0.2471 H         1 UNK         0.0811 
    123 H123       34.5525   28.9018    1.1897 H         1 UNK         0.0811 
    124 H124       33.8933   29.6382   -0.2527 H         1 UNK         0.0811 
    125 H125       34.1681   29.5174    3.4575 H         1 UNK         0.3204 
    126 H126       32.7908   27.3876    4.8618 H         1 UNK         0.0748 
    127 H127       32.6325   28.7024    7.0088 H         1 UNK         0.0771 
    128 H128       33.0650   30.1735    6.1432 H         1 UNK         0.0771 
    129 H129       31.5522   29.3402    5.7939 H         1 UNK         0.0771 
    130 H130       34.1518   26.4176    6.4057 H         1 UNK         0.2980 
    131 H131       37.0194   26.8793    6.0871 H         1 UNK         0.0545 
    132 H132       35.8818   28.8217    9.4146 H         1 UNK         0.3459 
    133 H133       34.7288   28.3681    8.1859 H         1 UNK         0.3459 
    134 H134       35.4414   24.7885    7.6621 H         1 UNK         0.0616 
    135 H135       37.1818   24.8835    7.6859 H         1 UNK         0.0616 
    136 H136       34.6773   22.8371    6.5460 H         1 UNK         0.0634 
    137 H137       35.0837   22.2681    4.9501 H         1 UNK         0.0634 
@<TRIPOS>BOND
     1    1    2 1    
     2    1   72 1    
     3    1   73 1    
     4    1   74 1    
     5    2    3 2    
     6    2    4 am   BACKBONE|DICT|INTERRES
     7    4    5 1    
     8    4   75 1    
     9    5    6 1    
    10    5   35 1    
    11    5   76 1    
    12    6    7 1    
    13    6   77 1    
    14    6   78 1    
    15    7    8 1    
    16    8    9 1    
    17    8   79 1    
    18    8   80 1    
    19    9   10 ar   
    20    9   14 ar   
    21   10   11 ar   
    22   10   81 1    
    23   11   12 ar   
    24   11   71 1    
    25   12   13 ar   
    26   12   82 1    
    27   13   14 ar   
    28   13   15 1    
    29   14   83 1    
    30   15   16 1    
    31   15   84 1    
    32   15   85 1    
    33   16   17 1    
    34   17   18 1    
    35   17   86 1    
    36   17   87 1    
    37   18   19 1    
    38   18   37 1    
    39   18   88 1    
    40   19   20 am   BACKBONE|DICT|INTERRES
    41   19   89 1    
    42   20   21 2    
    43   20   22 1    
    44   22   23 1    
    45   22   24 1    
    46   22   90 1    
    47   23   91 1    
    48   23   92 1    
    49   23   93 1    
    50   24   25 am   BACKBONE|DICT|INTERRES
    51   24   94 1    
    52   25   26 2    
    53   25   27 1    
    54   27   28 1    
    55   27   29 1    
    56   27   95 1    
    57   28   96 1    
    58   28   97 1    
    59   28   98 1    
    60   29   30 am   BACKBONE|DICT|INTERRES
    61   29   99 1    
    62   30   31 2    
    63   30   32 1    
    64   32   33 1    
    65   32   34 1    
    66   32  100 1    
    67   33  101 1    
    68   33  102 1    
    69   33  103 1    
    70   34   35 am   BACKBONE|DICT|INTERRES
    71   34  104 1    
    72   35   36 2    
    73   37   38 2    
    74   37   39 am   BACKBONE|DICT|INTERRES
    75   39   40 1    
    76   39  105 1    
    77   40   41 1    
    78   40   42 1    
    79   40  106 1    
    80   41  107 1    
    81   41  108 1    
    82   41  109 1    
    83   42   43 2    
    84   42   44 am   BACKBONE|DICT|INTERRES
    85   44   45 1    
    86   44  110 1    
    87   45   46 1    
    88   45   47 1    
    89   45  111 1    
    90   46  112 1    
    91   46  113 1    
    92   46  114 1    
    93   47   48 2    
    94   47   49 am   BACKBONE|DICT|INTERRES
    95   49   50 1    
    96   49  115 1    
    97   50   51 1    
    98   50   52 1    
    99   50  116 1    
   100   51  117 1    
   101   51  118 1    
   102   51  119 1    
   103   52   53 2    
   104   52   54 am   BACKBONE|DICT|INTERRES
   105   54   55 1    
   106   54  120 1    
   107   55   56 1    
   108   55   57 1    
   109   55  121 1    
   110   56  122 1    
   111   56  123 1    
   112   56  124 1    
   113   57   58 2    
   114   57   59 am   BACKBONE|DICT|INTERRES
   115   59   60 1    
   116   59  125 1    
   117   60   61 1    
   118   60   62 1    
   119   60  126 1    
   120   61  127 1    
   121   61  128 1    
   122   61  129 1    
   123   62   63 2    
   124   62   64 am   BACKBONE|DICT|INTERRES
   125   64   65 1    
   126   64  130 1    
   127   65   66 1    
   128   65   69 1    
   129   65  131 1    
   130   66   67 am   BACKBONE|DICT|INTERRES
   131   66   68 2    
   132   67  132 1    
   133   67  133 1    
   134   69   70 1    
   135   69  134 1    
   136   69  135 1    
   137   70   71 1    
   138   71  136 1    
   139   71  137 1    
@<TRIPOS>SUBSTRUCTURE
     1 UNK         1 GROUP             0       ****    0 ROOT    
