@<TRIPOS>MOLECULE
3R136
137   139    1
SMALL
USER_CHARGES


@<TRIPOS>ATOM
      1 CA         29.4782   21.0350   -3.1315 C.3       0 UNK        -0.1979 
      2 C          28.7458   21.3184   -1.8288 C.2       0 UNK         0.4864 
      3 O          27.8853   20.5334   -1.4282 O.2       0 UNK        -0.5359 
      4 N          29.0632   22.4456   -1.1749 N.am      1 UNK        -0.4318 
      5 CA         28.5230   22.9261    0.1080 C.3       1 UNK         0.0824 
      6 C6         28.7509   21.9377    1.2819 C.3       12 UNK        -0.0944 
      7 S7         28.8660   22.7734    2.9034 S.3       12 UNK        -0.2672 
      8 C8         30.5990   22.4821    3.3986 C.3       12 UNK         0.0333 
      9 C9         31.5053   23.6743    3.1098 C.ar      12 UNK        -0.0807 
     10 C10        32.1049   24.3732    4.1632 C.ar      12 UNK        -0.0894 
     11 C11        32.9841   25.4320    3.9104 C.ar      12 UNK        -0.0804 
     12 C12        33.2312   25.8182    2.5890 C.ar      12 UNK        -0.0824 
     13 C13        32.6259   25.1392    1.5265 C.ar      12 UNK        -0.0762 
     14 C14        31.7850   24.0534    1.7941 C.ar      12 UNK        -0.0782 
     15 C15        32.9028   25.5573    0.0875 C.3       12 UNK         0.0230 
     16 S16        32.0456   27.0983   -0.3821 S.3       12 UNK        -0.2608 
     17 C17        30.2847   26.6510   -0.1917 C.3       12 UNK        -0.0989 
     18 CA         29.4586   27.7094    0.5770 C.3       5 UNK         0.0716 
     19 N          28.0157   27.4742    0.4425 N.am      5 UNK        -0.4135 
     20 C          27.0575   28.3104    0.8703 C.2       4 UNK         0.5031 
     21 O          27.2940   29.3799    1.4352 O.2       4 UNK        -0.5229 
     22 CA         25.6027   27.8454    0.6888 C.3       4 UNK         0.0329 
     23 CB         24.5844   29.0052    0.7255 C.3       4 UNK        -0.2001 
     24 N          25.4256   26.9870   -0.4881 N.am      4 UNK        -0.4303 
     25 C          25.4644   27.3275   -1.7862 C.2       3 UNK         0.5044 
     26 O          25.6163   28.4830   -2.1836 O.2       3 UNK        -0.5152 
     27 CA         25.3404   26.1899   -2.8289 C.3       3 UNK         0.0319 
     28 CB         26.4378   26.3014   -3.9029 C.3       3 UNK        -0.2001 
     29 N          25.3965   24.8420   -2.2517 N.am      3 UNK        -0.4354 
     30 C          24.4164   24.2360   -1.5670 C.2       2 UNK         0.4964 
     31 O          23.2871   24.7076   -1.4371 O.2       2 UNK        -0.5047 
     32 CA         24.7607   22.9079   -0.8636 C.3       2 UNK         0.0288 
     33 CB         24.1636   21.7225   -1.6394 C.3       2 UNK        -0.2113 
     34 N          26.1933   22.6589   -0.6499 N.am      2 UNK        -0.4145 
     35 C          27.0638   23.4262    0.0227 C.2       1 UNK         0.5006 
     36 O          26.7743   24.5197    0.5139 O.2       1 UNK        -0.5103 
     37 C          29.8838   27.8473    2.0554 C.2       5 UNK         0.5055 
     38 O          30.6995   28.7131    2.3638 O.2       5 UNK        -0.5220 
     39 N          29.2489   27.0711    2.9480 N.am      6 UNK        -0.4450 
     40 CA         29.4279   27.1459    4.4016 C.3       6 UNK         0.0367 
     41 CB         28.6349   26.0120    5.0696 C.3       6 UNK        -0.1929 
     42 C          29.0559   28.5047    5.0315 C.2       6 UNK         0.5070 
     43 O          29.5309   28.8019    6.1278 O.2       6 UNK        -0.5237 
     44 N          28.2122   29.2939    4.3516 N.am      7 UNK        -0.4739 
     45 CA         27.8539   30.6559    4.7471 C.3       7 UNK         0.0276 
     46 CB         26.3460   30.8677    4.5306 C.3       7 UNK        -0.1927 
     47 C          28.6621   31.6988    3.9589 C.2       7 UNK         0.5013 
     48 O          29.0607   32.7097    4.5383 O.2       7 UNK        -0.5193 
     49 N          28.8593   31.4588    2.6544 N.am      8 UNK        -0.4253 
     50 CA         29.5158   32.3850    1.7309 C.3       8 UNK         0.0242 
     51 CB         29.1778   31.9890    0.2845 C.3       8 UNK        -0.2000 
     52 C          31.0387   32.4888    1.9192 C.2       8 UNK         0.4948 
     53 O          31.5753   33.5928    1.8064 O.2       8 UNK        -0.5275 
     54 N          31.7149   31.3589    2.1659 N.am      9 UNK        -0.4246 
     55 CA         33.1667   31.2995    2.3457 C.3       9 UNK         0.0261 
     56 CB         33.6680   29.8918    1.9809 C.3       9 UNK        -0.1959 
     57 C          33.5722   31.6580    3.7828 C.2       9 UNK         0.5033 
     58 O          32.7731   31.5271    4.7143 O.2       9 UNK        -0.5390 
     59 N          34.8381   32.0611    3.9469 N.am      10 UNK        -0.4215 
     60 CA         35.4693   32.3535    5.2355 C.3       10 UNK         0.0240 
     61 CB         36.6618   33.3013    5.0046 C.3       10 UNK        -0.1982 
     62 C          35.8729   31.0554    5.9620 C.2       10 UNK         0.4970 
     63 O          37.0635   30.7876    6.1344 O.2       10 UNK        -0.4916 
     64 N          34.8684   30.2608    6.3482 N.am      11 UNK        -0.4279 
     65 CA         35.0210   28.9738    7.0466 C.3       11 UNK         0.1003 
     66 C          35.5712   29.0763    8.5002 C.2       11 UNK         0.5709 
     67 N          35.5622   30.2414    9.1376 N.am      11 UNK        -0.7358 
     68 O          36.0197   28.0770    9.0573 O.2       11 UNK        -0.4999 
     69 C69        33.7068   28.1507    7.0232 C.3       12 UNK        -0.0954 
     70 S70        33.0895   27.8131    5.3401 S.3       12 UNK        -0.2268 
     71 C71        33.6991   26.1227    5.0650 C.3       12 UNK         0.0203 
     72 H72        30.0071   20.0848   -3.0638 H         1 UNK         0.0888 
     73 H73        28.7675   20.9715   -3.9550 H         1 UNK         0.0888 
     74 H74        30.2052   21.8112   -3.3695 H         1 UNK         0.0888 
     75 H75        29.7550   23.0523   -1.5932 H         1 UNK         0.3017 
     76 H76        29.1132   23.8122    0.3224 H         1 UNK         0.0873 
     77 H77        29.6677   21.3718    1.1138 H         1 UNK         0.0745 
     78 H78        27.9569   21.1897    1.3267 H         1 UNK         0.0745 
     79 H79        30.6036   22.2605    4.4669 H         1 UNK         0.0705 
     80 H80        30.9988   21.5909    2.9139 H         1 UNK         0.0705 
     81 H81        31.9087   24.0744    5.1839 H         1 UNK         0.1334 
     82 H82        33.8983   26.6452    2.3876 H         1 UNK         0.1417 
     83 H83        31.3455   23.4993    0.9776 H         1 UNK         0.1562 
     84 H84        32.6177   24.7661   -0.6077 H         1 UNK         0.0748 
     85 H85        33.9763   25.7012   -0.0433 H         1 UNK         0.0748 
     86 H86        30.1995   25.6870    0.2998 H         1 UNK         0.0940 
     87 H87        29.8775   26.5171   -1.1952 H         1 UNK         0.0940 
     88 H88        29.6513   28.6739    0.1043 H         1 UNK         0.0703 
     89 H89        27.7251   26.5903    0.0475 H         1 UNK         0.3081 
     90 H90        25.3918   27.2073    1.5482 H         1 UNK         0.0719 
     91 H91        24.7935   29.7558   -0.0370 H         1 UNK         0.0809 
     92 H92        23.5664   28.6460    0.5757 H         1 UNK         0.0809 
     93 H93        24.6092   29.5136    1.6900 H         1 UNK         0.0809 
     94 H94        25.3512   25.9991   -0.2781 H         1 UNK         0.2990 
     95 H95        24.3722   26.3130   -3.3185 H         1 UNK         0.0690 
     96 H96        26.3862   27.2597   -4.4216 H         1 UNK         0.0788 
     97 H97        26.3333   25.5240   -4.6602 H         1 UNK         0.0788 
     98 H98        27.4358   26.2187   -3.4705 H         1 UNK         0.0788 
     99 H99        26.2857   24.3682   -2.3093 H         1 UNK         0.2993 
    100 H100       24.2921   22.9443    0.1220 H         1 UNK         0.0949 
    101 H101       24.6226   21.6136   -2.6230 H         1 UNK         0.0767 
    102 H102       24.3017   20.7852   -1.0996 H         1 UNK         0.0767 
    103 H103       23.0909   21.8516   -1.7910 H         1 UNK         0.0767 
    104 H104       26.5628   21.7831   -1.0150 H         1 UNK         0.3013 
    105 H105       28.5836   26.3912    2.6103 H         1 UNK         0.3121 
    106 H106       30.4853   26.9779    4.6025 H         1 UNK         0.0774 
    107 H107       27.5712   26.0681    4.8363 H         1 UNK         0.0815 
    108 H108       28.7346   26.0520    6.1552 H         1 UNK         0.0815 
    109 H109       29.0020   25.0366    4.7543 H         1 UNK         0.0815 
    110 H110       27.8865   28.9896    3.4427 H         1 UNK         0.2987 
    111 H111       28.0636   30.8087    5.8082 H         1 UNK         0.0949 
    112 H112       26.0632   30.7465    3.4844 H         1 UNK         0.0806 
    113 H113       25.7591   30.1630    5.1198 H         1 UNK         0.0806 
    114 H114       26.0470   31.8718    4.8343 H         1 UNK         0.0806 
    115 H115       28.4411   30.6283    2.2435 H         1 UNK         0.3010 
    116 H116       29.0978   33.3785    1.9084 H         1 UNK         0.0829 
    117 H117       28.1002   31.9657    0.1194 H         1 UNK         0.0813 
    118 H118       29.6000   32.7029   -0.4240 H         1 UNK         0.0813 
    119 H119       29.5758   31.0065    0.0325 H         1 UNK         0.0813 
    120 H120       31.2121   30.4813    2.2908 H         1 UNK         0.3038 
    121 H121       33.6344   32.0138    1.6645 H         1 UNK         0.0769 
    122 H122       33.2741   29.1367    2.6611 H         1 UNK         0.0811 
    123 H123       34.7558   29.8328    2.0271 H         1 UNK         0.0811 
    124 H124       33.3706   29.6142    0.9697 H         1 UNK         0.0811 
    125 H125       35.4394   32.1047    3.1363 H         1 UNK         0.3204 
    126 H126       34.7514   32.8751    5.8725 H         1 UNK         0.0748 
    127 H127       37.4192   32.8530    4.3602 H         1 UNK         0.0771 
    128 H128       36.3413   34.2364    4.5448 H         1 UNK         0.0771 
    129 H129       37.1459   33.5564    5.9485 H         1 UNK         0.0771 
    130 H130       33.9226   30.5327    6.1002 H         1 UNK         0.2980 
    131 H131       35.7682   28.4041    6.4908 H         1 UNK         0.0545 
    132 H132       35.9251   30.2934   10.0763 H         1 UNK         0.3459 
    133 H133       35.1925   31.0653    8.6920 H         1 UNK         0.3459 
    134 H134       33.8331   27.2037    7.5507 H         1 UNK         0.0616 
    135 H135       32.9214   28.6865    7.5594 H         1 UNK         0.0616 
    136 H136       33.5772   25.5390    5.9784 H         1 UNK         0.0634 
    137 H137       34.7706   26.1594    4.8637 H         1 UNK         0.0634 
@<TRIPOS>BOND
     1    1    2 1    
     2    1   72 1    
     3    1   73 1    
     4    1   74 1    
     5    2    3 2    
     6    2    4 am   BACKBONE|DICT|INTERRES
     7    4    5 1    
     8    4   75 1    
     9    5    6 1    
    10    5   35 1    
    11    5   76 1    
    12    6    7 1    
    13    6   77 1    
    14    6   78 1    
    15    7    8 1    
    16    8    9 1    
    17    8   79 1    
    18    8   80 1    
    19    9   10 ar   
    20    9   14 ar   
    21   10   11 ar   
    22   10   81 1    
    23   11   12 ar   
    24   11   71 1    
    25   12   13 ar   
    26   12   82 1    
    27   13   14 ar   
    28   13   15 1    
    29   14   83 1    
    30   15   16 1    
    31   15   84 1    
    32   15   85 1    
    33   16   17 1    
    34   17   18 1    
    35   17   86 1    
    36   17   87 1    
    37   18   19 1    
    38   18   37 1    
    39   18   88 1    
    40   19   20 am   BACKBONE|DICT|INTERRES
    41   19   89 1    
    42   20   21 2    
    43   20   22 1    
    44   22   23 1    
    45   22   24 1    
    46   22   90 1    
    47   23   91 1    
    48   23   92 1    
    49   23   93 1    
    50   24   25 am   BACKBONE|DICT|INTERRES
    51   24   94 1    
    52   25   26 2    
    53   25   27 1    
    54   27   28 1    
    55   27   29 1    
    56   27   95 1    
    57   28   96 1    
    58   28   97 1    
    59   28   98 1    
    60   29   30 am   BACKBONE|DICT|INTERRES
    61   29   99 1    
    62   30   31 2    
    63   30   32 1    
    64   32   33 1    
    65   32   34 1    
    66   32  100 1    
    67   33  101 1    
    68   33  102 1    
    69   33  103 1    
    70   34   35 am   BACKBONE|DICT|INTERRES
    71   34  104 1    
    72   35   36 2    
    73   37   38 2    
    74   37   39 am   BACKBONE|DICT|INTERRES
    75   39   40 1    
    76   39  105 1    
    77   40   41 1    
    78   40   42 1    
    79   40  106 1    
    80   41  107 1    
    81   41  108 1    
    82   41  109 1    
    83   42   43 2    
    84   42   44 am   BACKBONE|DICT|INTERRES
    85   44   45 1    
    86   44  110 1    
    87   45   46 1    
    88   45   47 1    
    89   45  111 1    
    90   46  112 1    
    91   46  113 1    
    92   46  114 1    
    93   47   48 2    
    94   47   49 am   BACKBONE|DICT|INTERRES
    95   49   50 1    
    96   49  115 1    
    97   50   51 1    
    98   50   52 1    
    99   50  116 1    
   100   51  117 1    
   101   51  118 1    
   102   51  119 1    
   103   52   53 2    
   104   52   54 am   BACKBONE|DICT|INTERRES
   105   54   55 1    
   106   54  120 1    
   107   55   56 1    
   108   55   57 1    
   109   55  121 1    
   110   56  122 1    
   111   56  123 1    
   112   56  124 1    
   113   57   58 2    
   114   57   59 am   BACKBONE|DICT|INTERRES
   115   59   60 1    
   116   59  125 1    
   117   60   61 1    
   118   60   62 1    
   119   60  126 1    
   120   61  127 1    
   121   61  128 1    
   122   61  129 1    
   123   62   63 2    
   124   62   64 am   BACKBONE|DICT|INTERRES
   125   64   65 1    
   126   64  130 1    
   127   65   66 1    
   128   65   69 1    
   129   65  131 1    
   130   66   67 am   BACKBONE|DICT|INTERRES
   131   66   68 2    
   132   67  132 1    
   133   67  133 1    
   134   69   70 1    
   135   69  134 1    
   136   69  135 1    
   137   70   71 1    
   138   71  136 1    
   139   71  137 1    
@<TRIPOS>SUBSTRUCTURE
     1 UNK         1 GROUP             0       ****    0 ROOT    
