@<TRIPOS>MOLECULE
3R136
137   139    1
SMALL
USER_CHARGES


@<TRIPOS>ATOM
      1 CA         27.6806   19.1072    1.3204 C.3       0 UNK        -0.1979 
      2 C          27.6541   20.5202    0.7585 C.2       0 UNK         0.4864 
      3 O          26.6749   21.2413    0.9588 O.2       0 UNK        -0.5359 
      4 N          28.7311   20.9326    0.0724 N.am      1 UNK        -0.4318 
      5 CA         28.8725   22.2402   -0.5842 C.3       1 UNK         0.0824 
      6 C6         30.0707   22.3052   -1.5711 C.3       12 UNK        -0.0944 
      7 S7         31.6737   21.5535   -1.0852 S.3       12 UNK        -0.2672 
      8 C8         31.9906   22.0247    0.6549 C.3       12 UNK         0.0333 
      9 C9         32.1944   23.5133    0.9495 C.ar      12 UNK        -0.0807 
     10 C10        32.2834   23.9087    2.2886 C.ar      12 UNK        -0.0894 
     11 C11        32.4157   25.2563    2.6379 C.ar      12 UNK        -0.0804 
     12 C12        32.4756   26.2191    1.6272 C.ar      12 UNK        -0.0824 
     13 C13        32.3864   25.8443    0.2854 C.ar      12 UNK        -0.0762 
     14 C14        32.2707   24.4926   -0.0492 C.ar      12 UNK        -0.0782 
     15 C15        32.3725   26.9021   -0.8057 C.3       12 UNK         0.0230 
     16 S16        30.6909   27.1453   -1.4599 S.3       12 UNK        -0.2608 
     17 C17        29.8331   27.8569   -0.0147 C.3       12 UNK        -0.0989 
     18 CA         28.4063   28.3196   -0.3867 C.3       5 UNK         0.0716 
     19 N          27.5164   27.1842   -0.6468 N.am      5 UNK        -0.4135 
     20 C          26.3226   27.2682   -1.2507 C.2       4 UNK         0.5031 
     21 O          25.8403   28.3149   -1.6851 O.2       4 UNK        -0.5229 
     22 CA         25.5262   25.9620   -1.3871 C.3       4 UNK         0.0329 
     23 CB         26.0780   25.0942   -2.5310 C.3       4 UNK        -0.2001 
     24 N          25.5291   25.2005   -0.1378 N.am      4 UNK        -0.4303 
     25 C          24.7391   25.4662    0.9125 C.2       3 UNK         0.5044 
     26 O          23.8788   26.3469    0.9181 O.2       3 UNK        -0.5152 
     27 CA         24.9375   24.6063    2.1740 C.3       3 UNK         0.0319 
     28 CB         23.9931   23.3940    2.1532 C.3       3 UNK        -0.2001 
     29 N          26.3157   24.1410    2.3435 N.am      3 UNK        -0.4354 
     30 C          27.3469   24.9386    2.6623 C.2       2 UNK         0.4964 
     31 O          27.2392   26.1449    2.8738 O.2       2 UNK        -0.5047 
     32 CA         28.7429   24.2961    2.6950 C.3       2 UNK         0.0288 
     33 CB         29.0236   23.6957    4.0818 C.3       2 UNK        -0.2113 
     34 N          28.9219   23.2658    1.6701 N.am      2 UNK        -0.4145 
     35 C          28.7956   23.4680    0.3497 C.2       1 UNK         0.5006 
     36 O          28.5553   24.5719   -0.1415 O.2       1 UNK        -0.5103 
     37 C          27.8222   29.2871    0.6636 C.2       5 UNK         0.5055 
     38 O          27.9161   30.5007    0.4717 O.2       5 UNK        -0.5220 
     39 N          27.2059   28.7418    1.7237 N.am      6 UNK        -0.4450 
     40 CA         26.3978   29.3884    2.7674 C.3       6 UNK         0.0367 
     41 CB         25.1376   30.0374    2.1634 C.3       6 UNK        -0.1929 
     42 C          27.1349   30.3755    3.6913 C.2       6 UNK         0.5070 
     43 O          26.9743   30.2845    4.9085 O.2       6 UNK        -0.5237 
     44 N          27.8956   31.3120    3.1179 N.am      7 UNK        -0.4739 
     45 CA         28.5608   32.4100    3.8220 C.3       7 UNK         0.0276 
     46 CB         27.5803   33.5874    3.9976 C.3       7 UNK        -0.1927 
     47 C          29.8665   32.8141    3.1189 C.2       7 UNK         0.5013 
     48 O          30.1973   34.0006    3.0679 O.2       7 UNK        -0.5193 
     49 N          30.5868   31.8215    2.5813 N.am      8 UNK        -0.4253 
     50 CA         31.9153   31.9893    1.9870 C.3       8 UNK         0.0242 
     51 CB         32.2268   30.7686    1.1050 C.3       8 UNK        -0.2000 
     52 C          33.0032   32.1828    3.0581 C.2       8 UNK         0.4948 
     53 O          32.7601   31.9394    4.2451 O.2       8 UNK        -0.5275 
     54 N          34.2007   32.5880    2.6133 N.am      9 UNK        -0.4246 
     55 CA         35.3999   32.7244    3.4440 C.3       9 UNK         0.0261 
     56 CB         36.5643   33.2454    2.5855 C.3       9 UNK        -0.1959 
     57 C          35.7673   31.3903    4.1170 C.2       9 UNK         0.5033 
     58 O          35.9329   30.3870    3.4196 O.2       9 UNK        -0.5390 
     59 N          35.8409   31.4114    5.4548 N.am      10 UNK        -0.4215 
     60 CA         36.0292   30.2637    6.3528 C.3       10 UNK         0.0240 
     61 CB         37.3981   29.5868    6.1200 C.3       10 UNK        -0.1982 
     62 C          34.8565   29.2563    6.3498 C.2       10 UNK         0.4970 
     63 O          35.0475   28.1185    6.7829 O.2       10 UNK        -0.4916 
     64 N          33.6688   29.6872    5.9034 N.am      11 UNK        -0.4279 
     65 CA         32.4184   28.9155    5.9269 C.3       11 UNK         0.1003 
     66 C          31.2678   29.7083    6.6014 C.2       11 UNK         0.5709 
     67 N          31.1399   31.0063    6.3521 N.am      11 UNK        -0.7358 
     68 O          30.5047   29.1499    7.3855 O.2       11 UNK        -0.4999 
     69 C69        32.0305   28.4206    4.5073 C.3       12 UNK        -0.0954 
     70 S70        31.1489   26.8245    4.5597 S.3       12 UNK        -0.2268 
     71 C71        32.4782   25.6614    4.1060 C.3       12 UNK         0.0203 
     72 H72        26.8559   18.5261    0.9087 H         1 UNK         0.0888 
     73 H73        28.6109   18.5912    1.0838 H         1 UNK         0.0888 
     74 H74        27.5720   19.1325    2.4043 H         1 UNK         0.0888 
     75 H75        29.5076   20.2997   -0.0627 H         1 UNK         0.3017 
     76 H76        27.9775   22.3414   -1.2027 H         1 UNK         0.0873 
     77 H77        30.2480   23.3308   -1.9002 H         1 UNK         0.0745 
     78 H78        29.7757   21.7832   -2.4827 H         1 UNK         0.0745 
     79 H79        32.8929   21.4999    0.9716 H         1 UNK         0.0705 
     80 H80        31.1885   21.6332    1.2798 H         1 UNK         0.0705 
     81 H81        32.2305   23.1593    3.0665 H         1 UNK         0.1334 
     82 H82        32.5632   27.2645    1.8836 H         1 UNK         0.1417 
     83 H83        32.2096   24.2239   -1.0930 H         1 UNK         0.1562 
     84 H84        33.0299   26.5946   -1.6201 H         1 UNK         0.0748 
     85 H85        32.7628   27.8523   -0.4377 H         1 UNK         0.0748 
     86 H86        30.4296   28.6900    0.3528 H         1 UNK         0.0940 
     87 H87        29.8033   27.1195    0.7901 H         1 UNK         0.0940 
     88 H88        28.4745   28.8920   -1.3148 H         1 UNK         0.0703 
     89 H89        27.8706   26.2654   -0.3871 H         1 UNK         0.3081 
     90 H90        24.4946   26.2222   -1.6349 H         1 UNK         0.0719 
     91 H91        26.0376   25.6330   -3.4786 H         1 UNK         0.0809 
     92 H92        27.1172   24.8081   -2.3670 H         1 UNK         0.0809 
     93 H93        25.4943   24.1818   -2.6533 H         1 UNK         0.0809 
     94 H94        26.2395   24.4893   -0.0385 H         1 UNK         0.2990 
     95 H95        24.6799   25.2243    3.0370 H         1 UNK         0.0690 
     96 H96        24.0661   22.8186    3.0762 H         1 UNK         0.0788 
     97 H97        24.2157   22.7233    1.3220 H         1 UNK         0.0788 
     98 H98        22.9540   23.7097    2.0498 H         1 UNK         0.0788 
     99 H99        26.4944   23.1632    2.1445 H         1 UNK         0.2993 
    100 H100       29.4722   25.0854    2.5008 H         1 UNK         0.0949 
    101 H101       28.9218   24.4541    4.8595 H         1 UNK         0.0767 
    102 H102       28.3324   22.8867    4.3212 H         1 UNK         0.0767 
    103 H103       30.0374   23.3031    4.1500 H         1 UNK         0.0767 
    104 H104       29.0833   22.3243    1.9935 H         1 UNK         0.3013 
    105 H105       27.2617   27.7322    1.8387 H         1 UNK         0.3121 
    106 H106       26.0585   28.5720    3.4070 H         1 UNK         0.0774 
    107 H107       24.5507   29.3099    1.6019 H         1 UNK         0.0815 
    108 H108       24.4932   30.4400    2.9459 H         1 UNK         0.0815 
    109 H109       25.3839   30.8596    1.4910 H         1 UNK         0.0815 
    110 H110       27.9802   31.2914    2.1015 H         1 UNK         0.2987 
    111 H111       28.8570   32.0653    4.8149 H         1 UNK         0.0949 
    112 H112       26.6879   33.2842    4.5452 H         1 UNK         0.0806 
    113 H113       28.0386   34.4019    4.5598 H         1 UNK         0.0806 
    114 H114       27.2628   33.9897    3.0351 H         1 UNK         0.0806 
    115 H115       30.2499   30.8778    2.6947 H         1 UNK         0.3010 
    116 H116       31.9040   32.8808    1.3559 H         1 UNK         0.0829 
    117 H117       33.2186   30.8400    0.6568 H         1 UNK         0.0813 
    118 H118       32.1962   29.8385    1.6728 H         1 UNK         0.0813 
    119 H119       31.5162   30.6954    0.2821 H         1 UNK         0.0813 
    120 H120       34.3235   32.7385    1.6226 H         1 UNK         0.3038 
    121 H121       35.1830   33.4682    4.2137 H         1 UNK         0.0769 
    122 H122       37.4656   33.3714    3.1870 H         1 UNK         0.0811 
    123 H123       36.3320   34.2152    2.1451 H         1 UNK         0.0811 
    124 H124       36.8082   32.5570    1.7751 H         1 UNK         0.0811 
    125 H125       35.6742   32.2942    5.9196 H         1 UNK         0.3204 
    126 H126       36.0463   30.6813    7.3606 H         1 UNK         0.0748 
    127 H127       37.6112   28.8546    6.8999 H         1 UNK         0.0771 
    128 H128       37.4345   29.0607    5.1656 H         1 UNK         0.0771 
    129 H129       38.2090   30.3151    6.1334 H         1 UNK         0.0771 
    130 H130       33.5839   30.6295    5.5392 H         1 UNK         0.2980 
    131 H131       32.5771   28.0396    6.5590 H         1 UNK         0.0545 
    132 H132       31.7293   31.4616    5.6589 H         1 UNK         0.3459 
    133 H133       30.4136   31.5245    6.8183 H         1 UNK         0.3459 
    134 H134       31.4120   29.1509    3.9831 H         1 UNK         0.0616 
    135 H135       32.9245   28.3071    3.8931 H         1 UNK         0.0616 
    136 H136       33.4566   26.0885    4.3301 H         1 UNK         0.0634 
    137 H137       32.3808   24.7829    4.7453 H         1 UNK         0.0634 
@<TRIPOS>BOND
     1    1    2 1    
     2    1   72 1    
     3    1   73 1    
     4    1   74 1    
     5    2    3 2    
     6    2    4 am   BACKBONE|DICT|INTERRES
     7    4    5 1    
     8    4   75 1    
     9    5    6 1    
    10    5   35 1    
    11    5   76 1    
    12    6    7 1    
    13    6   77 1    
    14    6   78 1    
    15    7    8 1    
    16    8    9 1    
    17    8   79 1    
    18    8   80 1    
    19    9   10 ar   
    20    9   14 ar   
    21   10   11 ar   
    22   10   81 1    
    23   11   12 ar   
    24   11   71 1    
    25   12   13 ar   
    26   12   82 1    
    27   13   14 ar   
    28   13   15 1    
    29   14   83 1    
    30   15   16 1    
    31   15   84 1    
    32   15   85 1    
    33   16   17 1    
    34   17   18 1    
    35   17   86 1    
    36   17   87 1    
    37   18   19 1    
    38   18   37 1    
    39   18   88 1    
    40   19   20 am   BACKBONE|DICT|INTERRES
    41   19   89 1    
    42   20   21 2    
    43   20   22 1    
    44   22   23 1    
    45   22   24 1    
    46   22   90 1    
    47   23   91 1    
    48   23   92 1    
    49   23   93 1    
    50   24   25 am   BACKBONE|DICT|INTERRES
    51   24   94 1    
    52   25   26 2    
    53   25   27 1    
    54   27   28 1    
    55   27   29 1    
    56   27   95 1    
    57   28   96 1    
    58   28   97 1    
    59   28   98 1    
    60   29   30 am   BACKBONE|DICT|INTERRES
    61   29   99 1    
    62   30   31 2    
    63   30   32 1    
    64   32   33 1    
    65   32   34 1    
    66   32  100 1    
    67   33  101 1    
    68   33  102 1    
    69   33  103 1    
    70   34   35 am   BACKBONE|DICT|INTERRES
    71   34  104 1    
    72   35   36 2    
    73   37   38 2    
    74   37   39 am   BACKBONE|DICT|INTERRES
    75   39   40 1    
    76   39  105 1    
    77   40   41 1    
    78   40   42 1    
    79   40  106 1    
    80   41  107 1    
    81   41  108 1    
    82   41  109 1    
    83   42   43 2    
    84   42   44 am   BACKBONE|DICT|INTERRES
    85   44   45 1    
    86   44  110 1    
    87   45   46 1    
    88   45   47 1    
    89   45  111 1    
    90   46  112 1    
    91   46  113 1    
    92   46  114 1    
    93   47   48 2    
    94   47   49 am   BACKBONE|DICT|INTERRES
    95   49   50 1    
    96   49  115 1    
    97   50   51 1    
    98   50   52 1    
    99   50  116 1    
   100   51  117 1    
   101   51  118 1    
   102   51  119 1    
   103   52   53 2    
   104   52   54 am   BACKBONE|DICT|INTERRES
   105   54   55 1    
   106   54  120 1    
   107   55   56 1    
   108   55   57 1    
   109   55  121 1    
   110   56  122 1    
   111   56  123 1    
   112   56  124 1    
   113   57   58 2    
   114   57   59 am   BACKBONE|DICT|INTERRES
   115   59   60 1    
   116   59  125 1    
   117   60   61 1    
   118   60   62 1    
   119   60  126 1    
   120   61  127 1    
   121   61  128 1    
   122   61  129 1    
   123   62   63 2    
   124   62   64 am   BACKBONE|DICT|INTERRES
   125   64   65 1    
   126   64  130 1    
   127   65   66 1    
   128   65   69 1    
   129   65  131 1    
   130   66   67 am   BACKBONE|DICT|INTERRES
   131   66   68 2    
   132   67  132 1    
   133   67  133 1    
   134   69   70 1    
   135   69  134 1    
   136   69  135 1    
   137   70   71 1    
   138   71  136 1    
   139   71  137 1    
@<TRIPOS>SUBSTRUCTURE
     1 UNK         1 GROUP             0       ****    0 ROOT    
