@<TRIPOS>MOLECULE
3R136
137   139    1
SMALL
USER_CHARGES


@<TRIPOS>ATOM
      1 CA         27.5041   20.2150    5.6103 C.3       0 UNK        -0.1979 
      2 C          27.6603   21.2332    4.4899 C.2       0 UNK         0.4864 
      3 O          27.1865   22.3624    4.6269 O.2       0 UNK        -0.5359 
      4 N          28.3210   20.8355    3.3923 N.am      1 UNK        -0.4318 
      5 CA         28.5771   21.6336    2.1833 C.3       1 UNK         0.0824 
      6 C6         29.4953   22.8698    2.4308 C.3       12 UNK        -0.0944 
      7 S7         31.0456   22.4861    3.3118 S.3       12 UNK        -0.2672 
      8 C8         32.1794   22.0979    1.9424 C.3       12 UNK         0.0333 
      9 C9         32.5292   23.3134    1.0924 C.ar      12 UNK        -0.0807 
     10 C10        33.3450   24.3254    1.6097 C.ar      12 UNK        -0.0894 
     11 C11        33.7344   25.4019    0.8068 C.ar      12 UNK        -0.0804 
     12 C12        33.2981   25.4625   -0.5205 C.ar      12 UNK        -0.0824 
     13 C13        32.4788   24.4598   -1.0509 C.ar      12 UNK        -0.0762 
     14 C14        32.0924   23.3921   -0.2343 C.ar      12 UNK        -0.0782 
     15 C15        32.0839   24.4679   -2.5254 C.3       12 UNK         0.0230 
     16 S16        31.4685   26.0764   -3.1213 S.3       12 UNK        -0.2608 
     17 C17        29.8021   26.1295   -2.3879 C.3       12 UNK        -0.0989 
     18 CA         29.3896   27.5726   -2.0009 C.3       5 UNK         0.0716 
     19 N          27.9354   27.7124   -1.9404 N.am      5 UNK        -0.4135 
     20 C          27.2341   28.7250   -2.4681 C.2       4 UNK         0.5031 
     21 O          27.7344   29.6498   -3.1097 O.2       4 UNK        -0.5229 
     22 CA         25.7071   28.7061   -2.2610 C.3       4 UNK         0.0329 
     23 CB         25.0073   28.1064   -3.4916 C.3       4 UNK        -0.2001 
     24 N          25.2943   27.9660   -1.0667 N.am      4 UNK        -0.4303 
     25 C          25.5130   28.3707    0.1921 C.2       3 UNK         0.5044 
     26 O          25.9986   29.4637    0.4826 O.2       3 UNK        -0.5152 
     27 CA         25.1475   27.3834    1.3166 C.3       3 UNK         0.0319 
     28 CB         23.7858   27.7500    1.9283 C.3       3 UNK        -0.2001 
     29 N          25.1333   25.9666    0.9214 N.am      3 UNK        -0.4354 
     30 C          26.1927   25.2847    0.4662 C.2       2 UNK         0.4964 
     31 O          27.2850   25.7973    0.2078 O.2       2 UNK        -0.5047 
     32 CA         26.0214   23.7819    0.2441 C.3       2 UNK         0.0288 
     33 CB         25.9123   23.4529   -1.2545 C.3       2 UNK        -0.2113 
     34 N          27.2095   23.1571    0.8097 N.am      2 UNK        -0.4145 
     35 C          27.2536   21.9883    1.4577 C.2       1 UNK         0.5006 
     36 O          26.3046   21.1994    1.4933 O.2       1 UNK        -0.5103 
     37 C          30.0025   28.0140   -0.6606 C.2       5 UNK         0.5055 
     38 O          30.8584   28.9003   -0.6385 O.2       5 UNK        -0.5220 
     39 N          29.5279   27.4100    0.4361 N.am      6 UNK        -0.4450 
     40 CA         29.9505   27.6943    1.8008 C.3       6 UNK         0.0367 
     41 CB         29.7941   26.4250    2.6538 C.3       6 UNK        -0.1929 
     42 C          29.1608   28.8826    2.3588 C.2       6 UNK         0.5070 
     43 O          28.2124   28.6939    3.1236 O.2       6 UNK        -0.5237 
     44 N          29.5632   30.0934    1.9548 N.am      7 UNK        -0.4739 
     45 CA         28.9892   31.3726    2.3796 C.3       7 UNK         0.0276 
     46 CB         29.4172   32.4655    1.3828 C.3       7 UNK        -0.1927 
     47 C          29.3548   31.7196    3.8380 C.2       7 UNK         0.5013 
     48 O          30.0725   32.6920    4.0855 O.2       7 UNK        -0.5193 
     49 N          28.8639   30.8944    4.7730 N.am      8 UNK        -0.4253 
     50 CA         29.0451   30.9674    6.2245 C.3       8 UNK         0.0242 
     51 CB         28.2126   32.1339    6.8060 C.3       8 UNK        -0.2000 
     52 C          30.5370   30.9952    6.6076 C.2       8 UNK         0.4948 
     53 O          31.2524   30.0366    6.3078 O.2       8 UNK        -0.5275 
     54 N          30.9832   32.0974    7.2269 N.am      9 UNK        -0.4246 
     55 CA         32.3497   32.3398    7.6986 C.3       9 UNK         0.0261 
     56 CB         32.4045   33.7091    8.3954 C.3       9 UNK        -0.1959 
     57 C          33.4422   32.2451    6.6179 C.2       9 UNK         0.5033 
     58 O          34.5957   31.9953    6.9703 O.2       9 UNK        -0.5390 
     59 N          33.0752   32.3970    5.3351 N.am      10 UNK        -0.4215 
     60 CA         33.9668   32.2179    4.1832 C.3       10 UNK         0.0240 
     61 CB         33.2095   32.5731    2.8941 C.3       10 UNK        -0.1982 
     62 C          34.5652   30.8018    4.0685 C.2       10 UNK         0.4970 
     63 O          35.6606   30.6636    3.5226 O.2       10 UNK        -0.4916 
     64 N          33.8517   29.7958    4.5904 N.am      11 UNK        -0.4279 
     65 CA         34.2721   28.3877    4.6529 C.3       11 UNK         0.1003 
     66 C          34.2915   27.8530    6.1149 C.2       11 UNK         0.5709 
     67 N          34.3608   28.7079    7.1301 N.am      11 UNK        -0.7358 
     68 O          34.2736   26.6454    6.3412 O.2       11 UNK        -0.4999 
     69 C69        33.4400   27.5039    3.6822 C.3       12 UNK        -0.0954 
     70 S70        33.7657   27.9339    1.9374 S.3       12 UNK        -0.2268 
     71 C71        34.6721   26.4740    1.3444 C.3       12 UNK         0.0203 
     72 H72        26.4480   20.0319    5.8062 H         1 UNK         0.0888 
     73 H73        27.9737   19.2624    5.3653 H         1 UNK         0.0888 
     74 H74        27.9608   20.5919    6.5251 H         1 UNK         0.0888 
     75 H75        28.6579   19.8842    3.3491 H         1 UNK         0.3017 
     76 H76        29.1072   20.9691    1.4996 H         1 UNK         0.0873 
     77 H77        28.9667   23.6145    3.0279 H         1 UNK         0.0745 
     78 H78        29.7540   23.3605    1.4920 H         1 UNK         0.0745 
     79 H79        31.7438   21.3052    1.3323 H         1 UNK         0.0705 
     80 H80        33.0985   21.6850    2.3605 H         1 UNK         0.0705 
     81 H81        33.6937   24.2603    2.6313 H         1 UNK         0.1334 
     82 H82        33.6163   26.2834   -1.1487 H         1 UNK         0.1417 
     83 H83        31.4813   22.5990   -0.6437 H         1 UNK         0.1562 
     84 H84        31.3312   23.7058   -2.7340 H         1 UNK         0.0748 
     85 H85        32.9618   24.1975   -3.1134 H         1 UNK         0.0748 
     86 H86        29.7329   25.4456   -1.5392 H         1 UNK         0.0940 
     87 H87        29.1169   25.7353   -3.1404 H         1 UNK         0.0940 
     88 H88        29.7744   28.2472   -2.7692 H         1 UNK         0.0703 
     89 H89        27.4470   27.0249   -1.3784 H         1 UNK         0.3081 
     90 H90        25.3777   29.7416   -2.1504 H         1 UNK         0.0719 
     91 H91        25.2731   28.6544   -4.3967 H         1 UNK         0.0809 
     92 H92        25.2867   27.0637   -3.6487 H         1 UNK         0.0809 
     93 H93        23.9225   28.1536   -3.3942 H         1 UNK         0.0809 
     94 H94        24.8655   27.0634   -1.2101 H         1 UNK         0.2990 
     95 H95        25.9085   27.4942    2.0922 H         1 UNK         0.0690 
     96 H96        23.7739   28.7895    2.2599 H         1 UNK         0.0788 
     97 H97        23.5620   27.1336    2.7992 H         1 UNK         0.0788 
     98 H98        22.9741   27.6276    1.2100 H         1 UNK         0.0788 
     99 H99        24.2699   25.4680    1.0850 H         1 UNK         0.2993 
    100 H100       25.1280   23.4345    0.7681 H         1 UNK         0.0949 
    101 H101       25.8200   22.3787   -1.4159 H         1 UNK         0.0767 
    102 H102       25.0332   23.9242   -1.6958 H         1 UNK         0.0767 
    103 H103       26.7852   23.7996   -1.8097 H         1 UNK         0.0767 
    104 H104       28.0151   23.7681    0.8339 H         1 UNK         0.3013 
    105 H105       28.7586   26.7492    0.3414 H         1 UNK         0.3121 
    106 H106       31.0037   27.9672    1.8022 H         1 UNK         0.0774 
    107 H107       28.7697   26.0513    2.6399 H         1 UNK         0.0815 
    108 H108       30.4540   25.6346    2.2962 H         1 UNK         0.0815 
    109 H109       30.0572   26.6175    3.6945 H         1 UNK         0.0815 
    110 H110       30.3285   30.1359    1.2933 H         1 UNK         0.2987 
    111 H111       27.9006   31.2908    2.3315 H         1 UNK         0.0949 
    112 H112       28.9920   33.4318    1.6572 H         1 UNK         0.0806 
    113 H113       30.5002   32.5843    1.3479 H         1 UNK         0.0806 
    114 H114       29.0728   32.2367    0.3740 H         1 UNK         0.0806 
    115 H115       28.3789   30.0689    4.4277 H         1 UNK         0.3010 
    116 H116       28.6461   30.0382    6.6340 H         1 UNK         0.0829 
    117 H117       28.5238   33.1027    6.4131 H         1 UNK         0.0813 
    118 H118       27.1562   32.0118    6.5663 H         1 UNK         0.0813 
    119 H119       28.2854   32.1711    7.8939 H         1 UNK         0.0813 
    120 H120       30.3172   32.8382    7.3925 H         1 UNK         0.3038 
    121 H121       32.5718   31.5701    8.4406 H         1 UNK         0.0769 
    122 H122       32.1551   34.5206    7.7105 H         1 UNK         0.0811 
    123 H123       33.4032   33.9091    8.7869 H         1 UNK         0.0811 
    124 H124       31.7150   33.7553    9.2387 H         1 UNK         0.0811 
    125 H125       32.1000   32.5846    5.1298 H         1 UNK         0.3204 
    126 H126       34.7969   32.9176    4.2999 H         1 UNK         0.0748 
    127 H127       33.8718   32.5317    2.0283 H         1 UNK         0.0771 
    128 H128       32.3906   31.8770    2.7097 H         1 UNK         0.0771 
    129 H129       32.7929   33.5797    2.9374 H         1 UNK         0.0771 
    130 H130       32.9744   30.0010    5.0571 H         1 UNK         0.2980 
    131 H131       35.3152   28.3094    4.3424 H         1 UNK         0.0545 
    132 H132       34.3804   28.3494    8.0714 H         1 UNK         0.3459 
    133 H133       34.4286   29.7022    6.9658 H         1 UNK         0.3459 
    134 H134       32.3746   27.6251    3.8813 H         1 UNK         0.0616 
    135 H135       33.6551   26.4447    3.8277 H         1 UNK         0.0616 
    136 H136       35.3514   26.7905    0.5516 H         1 UNK         0.0634 
    137 H137       35.3052   26.0762    2.1390 H         1 UNK         0.0634 
@<TRIPOS>BOND
     1    1    2 1    
     2    1   72 1    
     3    1   73 1    
     4    1   74 1    
     5    2    3 2    
     6    2    4 am   BACKBONE|DICT|INTERRES
     7    4    5 1    
     8    4   75 1    
     9    5    6 1    
    10    5   35 1    
    11    5   76 1    
    12    6    7 1    
    13    6   77 1    
    14    6   78 1    
    15    7    8 1    
    16    8    9 1    
    17    8   79 1    
    18    8   80 1    
    19    9   10 ar   
    20    9   14 ar   
    21   10   11 ar   
    22   10   81 1    
    23   11   12 ar   
    24   11   71 1    
    25   12   13 ar   
    26   12   82 1    
    27   13   14 ar   
    28   13   15 1    
    29   14   83 1    
    30   15   16 1    
    31   15   84 1    
    32   15   85 1    
    33   16   17 1    
    34   17   18 1    
    35   17   86 1    
    36   17   87 1    
    37   18   19 1    
    38   18   37 1    
    39   18   88 1    
    40   19   20 am   BACKBONE|DICT|INTERRES
    41   19   89 1    
    42   20   21 2    
    43   20   22 1    
    44   22   23 1    
    45   22   24 1    
    46   22   90 1    
    47   23   91 1    
    48   23   92 1    
    49   23   93 1    
    50   24   25 am   BACKBONE|DICT|INTERRES
    51   24   94 1    
    52   25   26 2    
    53   25   27 1    
    54   27   28 1    
    55   27   29 1    
    56   27   95 1    
    57   28   96 1    
    58   28   97 1    
    59   28   98 1    
    60   29   30 am   BACKBONE|DICT|INTERRES
    61   29   99 1    
    62   30   31 2    
    63   30   32 1    
    64   32   33 1    
    65   32   34 1    
    66   32  100 1    
    67   33  101 1    
    68   33  102 1    
    69   33  103 1    
    70   34   35 am   BACKBONE|DICT|INTERRES
    71   34  104 1    
    72   35   36 2    
    73   37   38 2    
    74   37   39 am   BACKBONE|DICT|INTERRES
    75   39   40 1    
    76   39  105 1    
    77   40   41 1    
    78   40   42 1    
    79   40  106 1    
    80   41  107 1    
    81   41  108 1    
    82   41  109 1    
    83   42   43 2    
    84   42   44 am   BACKBONE|DICT|INTERRES
    85   44   45 1    
    86   44  110 1    
    87   45   46 1    
    88   45   47 1    
    89   45  111 1    
    90   46  112 1    
    91   46  113 1    
    92   46  114 1    
    93   47   48 2    
    94   47   49 am   BACKBONE|DICT|INTERRES
    95   49   50 1    
    96   49  115 1    
    97   50   51 1    
    98   50   52 1    
    99   50  116 1    
   100   51  117 1    
   101   51  118 1    
   102   51  119 1    
   103   52   53 2    
   104   52   54 am   BACKBONE|DICT|INTERRES
   105   54   55 1    
   106   54  120 1    
   107   55   56 1    
   108   55   57 1    
   109   55  121 1    
   110   56  122 1    
   111   56  123 1    
   112   56  124 1    
   113   57   58 2    
   114   57   59 am   BACKBONE|DICT|INTERRES
   115   59   60 1    
   116   59  125 1    
   117   60   61 1    
   118   60   62 1    
   119   60  126 1    
   120   61  127 1    
   121   61  128 1    
   122   61  129 1    
   123   62   63 2    
   124   62   64 am   BACKBONE|DICT|INTERRES
   125   64   65 1    
   126   64  130 1    
   127   65   66 1    
   128   65   69 1    
   129   65  131 1    
   130   66   67 am   BACKBONE|DICT|INTERRES
   131   66   68 2    
   132   67  132 1    
   133   67  133 1    
   134   69   70 1    
   135   69  134 1    
   136   69  135 1    
   137   70   71 1    
   138   71  136 1    
   139   71  137 1    
@<TRIPOS>SUBSTRUCTURE
     1 UNK         1 GROUP             0       ****    0 ROOT    
