@<TRIPOS>MOLECULE
3R136
137   139    1
SMALL
USER_CHARGES


@<TRIPOS>ATOM
      1 CA         30.7596   26.6367    2.9408 C.3       0 UNK        -0.1979 
      2 C          29.7155   25.6799    3.4918 C.2       0 UNK         0.4864 
      3 O          28.7554   26.1169    4.1249 O.2       0 UNK        -0.5359 
      4 N          29.8946   24.3741    3.2509 N.am      1 UNK        -0.4318 
      5 CA         29.0181   23.2962    3.7266 C.3       1 UNK         0.0824 
      6 C6         29.7755   21.9526    3.9264 C.3       12 UNK        -0.0944 
      7 S7         30.1979   20.8674    2.5028 S.3       12 UNK        -0.2672 
      8 C8         30.3836   21.9112    1.0117 C.3       12 UNK         0.0333 
      9 C9         31.4975   22.9584    1.0484 C.ar      12 UNK        -0.0807 
     10 C10        32.5200   22.9486    2.0056 C.ar      12 UNK        -0.0894 
     11 C11        33.4562   23.9829    2.0532 C.ar      12 UNK        -0.0804 
     12 C12        33.4021   25.0071    1.1056 C.ar      12 UNK        -0.0824 
     13 C13        32.4076   25.0239    0.1241 C.ar      12 UNK        -0.0762 
     14 C14        31.4651   23.9866    0.1009 C.ar      12 UNK        -0.0782 
     15 C15        32.3880   26.2071   -0.8465 C.3       12 UNK         0.0230 
     16 S16        31.1951   26.1174   -2.2287 S.3       12 UNK        -0.2608 
     17 C17        29.5813   26.3718   -1.4119 C.3       12 UNK        -0.0989 
     18 CA         28.8407   27.6333   -1.9404 C.3       5 UNK         0.0716 
     19 N          27.4067   27.3759   -2.0659 N.am      5 UNK        -0.4135 
     20 C          26.6315   27.7503   -3.0926 C.2       4 UNK         0.5031 
     21 O          27.0549   28.3268   -4.0960 O.2       4 UNK        -0.5229 
     22 CA         25.1296   27.4088   -3.0138 C.3       4 UNK         0.0329 
     23 CB         24.7900   26.2605   -3.9791 C.3       4 UNK        -0.2001 
     24 N          24.6884   27.0383   -1.6675 N.am      4 UNK        -0.4303 
     25 C          24.4777   27.9022   -0.6649 C.2       3 UNK         0.5044 
     26 O          24.5251   29.1254   -0.7931 O.2       3 UNK        -0.5152 
     27 CA         24.1739   27.3009    0.7206 C.3       3 UNK         0.0319 
     28 CB         22.6631   27.3391    1.0019 C.3       3 UNK        -0.2001 
     29 N          24.6644   25.9287    0.9111 N.am      3 UNK        -0.4354 
     30 C          25.9526   25.5594    0.8995 C.2       2 UNK         0.4964 
     31 O          26.8901   26.3233    0.6562 O.2       2 UNK        -0.5047 
     32 CA         26.2434   24.0778    1.1480 C.3       2 UNK         0.0288 
     33 CB         26.4271   23.3266   -0.1818 C.3       2 UNK        -0.2113 
     34 N          27.4701   23.9892    1.9301 N.am      2 UNK        -0.4145 
     35 C          27.6864   23.1539    2.9537 C.2       1 UNK         0.5006 
     36 O          26.8746   22.2975    3.3104 O.2       1 UNK        -0.5103 
     37 C          29.0693   28.8804   -1.0601 C.2       5 UNK         0.5055 
     38 O          28.1212   29.5996   -0.7320 O.2       5 UNK        -0.5220 
     39 N          30.3309   29.1201   -0.6800 N.am      6 UNK        -0.4450 
     40 CA         30.7838   30.2131    0.1881 C.3       6 UNK         0.0367 
     41 CB         32.3075   30.3719    0.0327 C.3       6 UNK        -0.1929 
     42 C          30.3625   30.0354    1.6636 C.2       6 UNK         0.5070 
     43 O          31.2090   30.0322    2.5597 O.2       6 UNK        -0.5237 
     44 N          29.0528   29.9097    1.9060 N.am      7 UNK        -0.4739 
     45 CA         28.4337   29.7485    3.2271 C.3       7 UNK         0.0276 
     46 CB         26.9303   29.4899    3.0489 C.3       7 UNK        -0.1927 
     47 C          28.6847   30.9274    4.1857 C.2       7 UNK         0.5013 
     48 O          28.6845   30.7263    5.3995 O.2       7 UNK        -0.5193 
     49 N          28.9353   32.1205    3.6274 N.am      8 UNK        -0.4253 
     50 CA         29.3673   33.3123    4.3606 C.3       8 UNK         0.0242 
     51 CB         29.2175   34.5468    3.4568 C.3       8 UNK        -0.2000 
     52 C          30.8096   33.2063    4.8927 C.2       8 UNK         0.4948 
     53 O          31.1042   33.7949    5.9336 O.2       8 UNK        -0.5275 
     54 N          31.6779   32.4675    4.1841 N.am      9 UNK        -0.4246 
     55 CA         33.0501   32.1755    4.6086 C.3       9 UNK         0.0261 
     56 CB         33.9365   31.9227    3.3779 C.3       9 UNK        -0.1959 
     57 C          33.1047   30.9740    5.5648 C.2       9 UNK         0.5033 
     58 O          33.9904   30.9315    6.4198 O.2       9 UNK        -0.5390 
     59 N          32.1698   30.0232    5.3997 N.am      10 UNK        -0.4215 
     60 CA         31.9460   28.8415    6.2459 C.3       10 UNK         0.0240 
     61 CB         31.3818   29.2677    7.6179 C.3       10 UNK        -0.1982 
     62 C          33.1880   27.9345    6.3650 C.2       10 UNK         0.4970 
     63 O          33.4840   27.4327    7.4509 O.2       10 UNK        -0.4916 
     64 N          33.8984   27.7710    5.2408 N.am      11 UNK        -0.4279 
     65 CA         35.1741   27.0440    5.1053 C.3       11 UNK         0.1003 
     66 C          36.3975   27.7515    5.7658 C.2       11 UNK         0.5709 
     67 N          36.2872   28.9859    6.2452 N.am      11 UNK        -0.7358 
     68 O          37.4865   27.1840    5.8127 O.2       11 UNK        -0.4999 
     69 C69        35.0908   25.5336    5.4864 C.3       12 UNK        -0.0954 
     70 S70        33.7022   24.6641    4.6875 S.3       12 UNK        -0.2268 
     71 C71        34.4825   24.0323    3.1714 C.3       12 UNK         0.0203 
     72 H72        30.5042   26.9359    1.9256 H         1 UNK         0.0888 
     73 H73        30.8195   27.5321    3.5549 H         1 UNK         0.0888 
     74 H74        31.7473   26.1823    2.9352 H         1 UNK         0.0888 
     75 H75        30.7020   24.0720    2.7191 H         1 UNK         0.3017 
     76 H76        28.7051   23.5958    4.7297 H         1 UNK         0.0873 
     77 H77        29.1923   21.3306    4.6080 H         1 UNK         0.0745 
     78 H78        30.7027   22.1486    4.4677 H         1 UNK         0.0745 
     79 H79        29.4292   22.3877    0.7906 H         1 UNK         0.0705 
     80 H80        30.5826   21.2464    0.1701 H         1 UNK         0.0705 
     81 H81        32.5743   22.1659    2.7490 H         1 UNK         0.1334 
     82 H82        34.1218   25.8136    1.1514 H         1 UNK         0.1417 
     83 H83        30.6828   23.9738   -0.6432 H         1 UNK         0.1562 
     84 H84        33.3828   26.3062   -1.2839 H         1 UNK         0.0748 
     85 H85        32.2156   27.1196   -0.2769 H         1 UNK         0.0748 
     86 H86        29.6822   26.3767   -0.3248 H         1 UNK         0.0940 
     87 H87        28.9960   25.4775   -1.6336 H         1 UNK         0.0940 
     88 H88        29.2332   27.8812   -2.9288 H         1 UNK         0.0703 
     89 H89        26.9696   26.9944   -1.2341 H         1 UNK         0.3081 
     90 H90        24.5763   28.2959   -3.3297 H         1 UNK         0.0719 
     91 H91        25.0711   26.5143   -5.0023 H         1 UNK         0.0809 
     92 H92        25.3155   25.3416   -3.7158 H         1 UNK         0.0809 
     93 H93        23.7207   26.0480   -3.9833 H         1 UNK         0.0809 
     94 H94        24.6006   26.0520   -1.4716 H         1 UNK         0.2990 
     95 H95        24.6711   27.9330    1.4586 H         1 UNK         0.0690 
     96 H96        22.4391   27.0116    2.0173 H         1 UNK         0.0788 
     97 H97        22.1072   26.7031    0.3117 H         1 UNK         0.0788 
     98 H98        22.2718   28.3523    0.8980 H         1 UNK         0.0788 
     99 H99        23.9612   25.2275    1.0977 H         1 UNK         0.2993 
    100 H100       25.4096   23.6418    1.7030 H         1 UNK         0.0949 
    101 H101       27.2433   23.7439   -0.7732 H         1 UNK         0.0767 
    102 H102       26.6455   22.2722   -0.0109 H         1 UNK         0.0767 
    103 H103       25.5225   23.3755   -0.7892 H         1 UNK         0.0767 
    104 H104       28.1365   24.7295    1.7559 H         1 UNK         0.3013 
    105 H105       31.0445   28.4872   -1.0105 H         1 UNK         0.3121 
    106 H106       30.3190   31.1366   -0.1638 H         1 UNK         0.0774 
    107 H107       32.6648   31.2429    0.5831 H         1 UNK         0.0815 
    108 H108       32.8477   29.5034    0.4114 H         1 UNK         0.0815 
    109 H109       32.5900   30.5172   -1.0100 H         1 UNK         0.0815 
    110 H110       28.4345   29.8907    1.0973 H         1 UNK         0.2987 
    111 H111       28.8717   28.8653    3.6939 H         1 UNK         0.0949 
    112 H112       26.7597   28.5812    2.4713 H         1 UNK         0.0806 
    113 H113       26.4383   29.3560    4.0133 H         1 UNK         0.0806 
    114 H114       26.4341   30.3147    2.5362 H         1 UNK         0.0806 
    115 H115       28.8872   32.1906    2.6214 H         1 UNK         0.3010 
    116 H116       28.7077   33.4374    5.2223 H         1 UNK         0.0829 
    117 H117       29.8437   34.4764    2.5665 H         1 UNK         0.0813 
    118 H118       29.5073   35.4551    3.9874 H         1 UNK         0.0813 
    119 H119       28.1850   34.6792    3.1330 H         1 UNK         0.0813 
    120 H120       31.3487   31.9724    3.3646 H         1 UNK         0.3038 
    121 H121       33.4511   33.0426    5.1382 H         1 UNK         0.0769 
    122 H122       33.9009   32.7612    2.6824 H         1 UNK         0.0811 
    123 H123       33.6401   31.0235    2.8380 H         1 UNK         0.0811 
    124 H124       34.9782   31.7912    3.6735 H         1 UNK         0.0811 
    125 H125       31.5593   30.1134    4.5941 H         1 UNK         0.3204 
    126 H126       31.1781   28.2455    5.7524 H         1 UNK         0.0748 
    127 H127       32.1115   29.8353    8.1965 H         1 UNK         0.0771 
    128 H128       30.4911   29.8859    7.5031 H         1 UNK         0.0771 
    129 H129       31.0969   28.3990    8.2127 H         1 UNK         0.0771 
    130 H130       33.5832   28.2467    4.4088 H         1 UNK         0.2980 
    131 H131       35.3934   27.0820    4.0379 H         1 UNK         0.0545 
    132 H132       37.0979   29.4222    6.6539 H         1 UNK         0.3459 
    133 H133       35.4036   29.4831    6.2381 H         1 UNK         0.3459 
    134 H134       34.9797   25.4189    6.5654 H         1 UNK         0.0616 
    135 H135       36.0172   25.0179    5.2278 H         1 UNK         0.0616 
    136 H136       34.8934   23.0391    3.3579 H         1 UNK         0.0634 
    137 H137       35.3202   24.6704    2.8860 H         1 UNK         0.0634 
@<TRIPOS>BOND
     1    1    2 1    
     2    1   72 1    
     3    1   73 1    
     4    1   74 1    
     5    2    3 2    
     6    2    4 am   BACKBONE|DICT|INTERRES
     7    4    5 1    
     8    4   75 1    
     9    5    6 1    
    10    5   35 1    
    11    5   76 1    
    12    6    7 1    
    13    6   77 1    
    14    6   78 1    
    15    7    8 1    
    16    8    9 1    
    17    8   79 1    
    18    8   80 1    
    19    9   10 ar   
    20    9   14 ar   
    21   10   11 ar   
    22   10   81 1    
    23   11   12 ar   
    24   11   71 1    
    25   12   13 ar   
    26   12   82 1    
    27   13   14 ar   
    28   13   15 1    
    29   14   83 1    
    30   15   16 1    
    31   15   84 1    
    32   15   85 1    
    33   16   17 1    
    34   17   18 1    
    35   17   86 1    
    36   17   87 1    
    37   18   19 1    
    38   18   37 1    
    39   18   88 1    
    40   19   20 am   BACKBONE|DICT|INTERRES
    41   19   89 1    
    42   20   21 2    
    43   20   22 1    
    44   22   23 1    
    45   22   24 1    
    46   22   90 1    
    47   23   91 1    
    48   23   92 1    
    49   23   93 1    
    50   24   25 am   BACKBONE|DICT|INTERRES
    51   24   94 1    
    52   25   26 2    
    53   25   27 1    
    54   27   28 1    
    55   27   29 1    
    56   27   95 1    
    57   28   96 1    
    58   28   97 1    
    59   28   98 1    
    60   29   30 am   BACKBONE|DICT|INTERRES
    61   29   99 1    
    62   30   31 2    
    63   30   32 1    
    64   32   33 1    
    65   32   34 1    
    66   32  100 1    
    67   33  101 1    
    68   33  102 1    
    69   33  103 1    
    70   34   35 am   BACKBONE|DICT|INTERRES
    71   34  104 1    
    72   35   36 2    
    73   37   38 2    
    74   37   39 am   BACKBONE|DICT|INTERRES
    75   39   40 1    
    76   39  105 1    
    77   40   41 1    
    78   40   42 1    
    79   40  106 1    
    80   41  107 1    
    81   41  108 1    
    82   41  109 1    
    83   42   43 2    
    84   42   44 am   BACKBONE|DICT|INTERRES
    85   44   45 1    
    86   44  110 1    
    87   45   46 1    
    88   45   47 1    
    89   45  111 1    
    90   46  112 1    
    91   46  113 1    
    92   46  114 1    
    93   47   48 2    
    94   47   49 am   BACKBONE|DICT|INTERRES
    95   49   50 1    
    96   49  115 1    
    97   50   51 1    
    98   50   52 1    
    99   50  116 1    
   100   51  117 1    
   101   51  118 1    
   102   51  119 1    
   103   52   53 2    
   104   52   54 am   BACKBONE|DICT|INTERRES
   105   54   55 1    
   106   54  120 1    
   107   55   56 1    
   108   55   57 1    
   109   55  121 1    
   110   56  122 1    
   111   56  123 1    
   112   56  124 1    
   113   57   58 2    
   114   57   59 am   BACKBONE|DICT|INTERRES
   115   59   60 1    
   116   59  125 1    
   117   60   61 1    
   118   60   62 1    
   119   60  126 1    
   120   61  127 1    
   121   61  128 1    
   122   61  129 1    
   123   62   63 2    
   124   62   64 am   BACKBONE|DICT|INTERRES
   125   64   65 1    
   126   64  130 1    
   127   65   66 1    
   128   65   69 1    
   129   65  131 1    
   130   66   67 am   BACKBONE|DICT|INTERRES
   131   66   68 2    
   132   67  132 1    
   133   67  133 1    
   134   69   70 1    
   135   69  134 1    
   136   69  135 1    
   137   70   71 1    
   138   71  136 1    
   139   71  137 1    
@<TRIPOS>SUBSTRUCTURE
     1 UNK         1 GROUP             0       ****    0 ROOT    
