@<TRIPOS>MOLECULE
3R136
137   139    1
SMALL
USER_CHARGES


@<TRIPOS>ATOM
      1 CA         27.0034   24.5451    3.6781 C.3       0 UNK        -0.1979 
      2 C          26.8596   23.2285    2.9313 C.2       0 UNK         0.4864 
      3 O          25.9967   22.4194    3.2749 O.2       0 UNK        -0.5359 
      4 N          27.6968   23.0041    1.9126 N.am      1 UNK        -0.4318 
      5 CA         27.7009   21.8095    1.0633 C.3       1 UNK         0.0824 
      6 C6         29.0723   21.5707    0.3696 C.3       12 UNK        -0.0944 
      7 S7         29.9013   23.0891   -0.2216 S.3       12 UNK        -0.2672 
      8 C8         31.1454   23.3305    1.0954 C.3       12 UNK         0.0333 
      9 C9         31.5606   24.7874    1.2736 C.ar      12 UNK        -0.0807 
     10 C10        31.7440   25.3065    2.5601 C.ar      12 UNK        -0.0894 
     11 C11        32.1440   26.6340    2.7405 C.ar      12 UNK        -0.0804 
     12 C12        32.3331   27.4534    1.6252 C.ar      12 UNK        -0.0824 
     13 C13        32.1397   26.9539    0.3354 C.ar      12 UNK        -0.0762 
     14 C14        31.7864   25.6127    0.1674 C.ar      12 UNK        -0.0782 
     15 C15        32.3243   27.8570   -0.8752 C.3       12 UNK         0.0230 
     16 S16        30.8127   28.8030   -1.2566 S.3       12 UNK        -0.2608 
     17 C17        29.6867   27.5049   -1.8873 C.3       12 UNK        -0.0989 
     18 CA         28.2831   27.4927   -1.2260 C.3       5 UNK         0.0716 
     19 N          27.4257   26.4539   -1.7767 N.am      5 UNK        -0.4135 
     20 C          26.7980   26.4781   -2.9552 C.2       4 UNK         0.5031 
     21 O          26.9366   27.3697   -3.7935 O.2       4 UNK        -0.5229 
     22 CA         25.8276   25.3184   -3.2321 C.3       4 UNK         0.0329 
     23 CB         26.5675   24.1370   -3.8798 C.3       4 UNK        -0.2001 
     24 N          25.1445   24.8662   -2.0152 N.am      4 UNK        -0.4303 
     25 C          24.1571   25.5452   -1.4072 C.2       3 UNK         0.5044 
     26 O          23.7132   26.6111   -1.8377 O.2       3 UNK        -0.5152 
     27 CA         23.5758   24.9690   -0.0949 C.3       3 UNK         0.0319 
     28 CB         22.0660   25.2523    0.0570 C.3       3 UNK        -0.2001 
     29 N          23.8654   23.5465    0.1212 N.am      3 UNK        -0.4354 
     30 C          23.5027   22.5068   -0.6471 C.2       2 UNK         0.4964 
     31 O          22.7402   22.5987   -1.6103 O.2       2 UNK        -0.5047 
     32 CA         24.1322   21.1396   -0.2981 C.3       2 UNK         0.0288 
     33 CB         24.3134   20.2479   -1.5454 C.3       2 UNK        -0.2113 
     34 N          25.4005   21.2301    0.4462 N.am      2 UNK        -0.4145 
     35 C          26.5218   21.8696    0.0734 C.2       1 UNK         0.5006 
     36 O          26.6207   22.5303   -0.9623 O.2       1 UNK        -0.5103 
     37 C          28.2938   27.2569    0.2945 C.2       5 UNK         0.5055 
     38 O          28.1556   26.1132    0.7411 O.2       5 UNK        -0.5220 
     39 N          28.4119   28.3483    1.0555 N.am      6 UNK        -0.4450 
     40 CA         28.4112   28.3689    2.5156 C.3       6 UNK         0.0367 
     41 CB         26.9723   28.2115    3.0518 C.3       6 UNK        -0.1929 
     42 C          29.0862   29.6617    2.9961 C.2       6 UNK         0.5070 
     43 O          28.5457   30.3603    3.8557 O.2       6 UNK        -0.5237 
     44 N          30.2416   29.9906    2.4004 N.am      7 UNK        -0.4739 
     45 CA         31.0283   31.1918    2.6948 C.3       7 UNK         0.0276 
     46 CB         32.0221   31.4540    1.5472 C.3       7 UNK        -0.1927 
     47 C          31.7269   31.0982    4.0636 C.2       7 UNK         0.5013 
     48 O          32.9365   30.8705    4.1322 O.2       7 UNK        -0.5193 
     49 N          30.9488   31.2811    5.1379 N.am      8 UNK        -0.4253 
     50 CA         31.3886   31.2507    6.5379 C.3       8 UNK         0.0242 
     51 CB         30.1783   31.4828    7.4554 C.3       8 UNK        -0.2000 
     52 C          32.5157   32.2450    6.8707 C.2       8 UNK         0.4948 
     53 O          33.3203   31.9636    7.7570 O.2       8 UNK        -0.5275 
     54 N          32.5903   33.3585    6.1278 N.am      9 UNK        -0.4246 
     55 CA         33.6863   34.3290    6.1847 C.3       9 UNK         0.0261 
     56 CB         33.3142   35.5611    5.3438 C.3       9 UNK        -0.1959 
     57 C          35.0439   33.7569    5.7293 C.2       9 UNK         0.5033 
     58 O          36.0771   34.2470    6.1879 O.2       9 UNK        -0.5390 
     59 N          35.0259   32.7438    4.8505 N.am      10 UNK        -0.4215 
     60 CA         36.2119   32.0136    4.4060 C.3       10 UNK         0.0240 
     61 CB         36.0513   31.6060    2.9309 C.3       10 UNK        -0.1982 
     62 C          36.4591   30.7826    5.2898 C.2       10 UNK         0.4970 
     63 O          37.6025   30.5524    5.6860 O.2       10 UNK        -0.4916 
     64 N          35.3979   30.0143    5.5756 N.am      11 UNK        -0.4279 
     65 CA         35.4671   28.7859    6.3856 C.3       11 UNK         0.1003 
     66 C          35.7388   29.0106    7.8998 C.2       11 UNK         0.5709 
     67 N          35.3808   30.1452    8.4856 N.am      11 UNK        -0.7358 
     68 O          36.3008   28.1361    8.5553 O.2       11 UNK        -0.4999 
     69 C69        34.2332   27.8738    6.1673 C.3       12 UNK        -0.0954 
     70 S70        34.1876   27.2085    4.4730 S.3       12 UNK        -0.2268 
     71 C71        32.4033   27.1816    4.1343 C.3       12 UNK         0.0203 
     72 H72        27.8059   25.1582    3.2682 H         1 UNK         0.0888 
     73 H73        27.2235   24.3583    4.7286 H         1 UNK         0.0888 
     74 H74        26.0744   25.1108    3.6196 H         1 UNK         0.0888 
     75 H75        28.3281   23.7380    1.6132 H         1 UNK         0.3017 
     76 H76        27.5328   20.9433    1.7077 H         1 UNK         0.0873 
     77 H77        28.9687   20.8848   -0.4736 H         1 UNK         0.0745 
     78 H78        29.7396   21.0580    1.0638 H         1 UNK         0.0745 
     79 H79        30.7438   22.9509    2.0362 H         1 UNK         0.0705 
     80 H80        32.0274   22.7308    0.8680 H         1 UNK         0.0705 
     81 H81        31.5962   24.6718    3.4233 H         1 UNK         0.1334 
     82 H82        32.6536   28.4742    1.7678 H         1 UNK         0.1417 
     83 H83        31.6717   25.2091   -0.8285 H         1 UNK         0.1562 
     84 H84        32.6214   27.2754   -1.7494 H         1 UNK         0.0748 
     85 H85        33.1387   28.5585   -0.6877 H         1 UNK         0.0748 
     86 H86        30.1456   26.5218   -1.8024 H         1 UNK         0.0940 
     87 H87        29.5790   27.6755   -2.9594 H         1 UNK         0.0940 
     88 H88        27.7996   28.4544   -1.4115 H         1 UNK         0.0703 
     89 H89        27.2600   25.6884   -1.1336 H         1 UNK         0.3081 
     90 H90        25.0731   25.6732   -3.9376 H         1 UNK         0.0719 
     91 H91        27.3655   23.7582   -3.2397 H         1 UNK         0.0809 
     92 H92        25.8883   23.3108   -4.0914 H         1 UNK         0.0809 
     93 H93        27.0229   24.4346   -4.8252 H         1 UNK         0.0809 
     94 H94        25.4825   24.0008   -1.6022 H         1 UNK         0.2990 
     95 H95        24.0891   25.4994    0.7085 H         1 UNK         0.0690 
     96 H96        21.6791   24.8517    0.9939 H         1 UNK         0.0788 
     97 H97        21.4877   24.8174   -0.7587 H         1 UNK         0.0788 
     98 H98        21.8658   26.3245    0.0592 H         1 UNK         0.0788 
     99 H99        24.4886   23.3457    0.8910 H         1 UNK         0.2993 
    100 H100       23.4207   20.6446    0.3646 H         1 UNK         0.0949 
    101 H101       23.3577   20.0542   -2.0342 H         1 UNK         0.0767 
    102 H102       24.9675   20.7148   -2.2828 H         1 UNK         0.0767 
    103 H103       24.7410   19.2803   -1.2828 H         1 UNK         0.0767 
    104 H104       25.3975   20.7898    1.3575 H         1 UNK         0.3013 
    105 H105       28.5324   29.2468    0.6062 H         1 UNK         0.3121 
    106 H106       29.0174   27.5365    2.8803 H         1 UNK         0.0774 
    107 H107       26.4970   27.3077    2.6735 H         1 UNK         0.0815 
    108 H108       26.3448   29.0569    2.7672 H         1 UNK         0.0815 
    109 H109       26.9662   28.1501    4.1407 H         1 UNK         0.0815 
    110 H110       30.6211   29.3572    1.7106 H         1 UNK         0.2987 
    111 H111       30.3471   32.0450    2.7327 H         1 UNK         0.0949 
    112 H112       32.7688   30.6669    1.4538 H         1 UNK         0.0806 
    113 H113       31.5094   31.5442    0.5894 H         1 UNK         0.0806 
    114 H114       32.5634   32.3866    1.7117 H         1 UNK         0.0806 
    115 H115       29.9501   31.3583    4.9727 H         1 UNK         0.3010 
    116 H116       31.7764   30.2494    6.7323 H         1 UNK         0.0829 
    117 H117       29.4111   30.7238    7.3001 H         1 UNK         0.0813 
    118 H118       30.4696   31.4365    8.5059 H         1 UNK         0.0813 
    119 H119       29.7239   32.4597    7.2852 H         1 UNK         0.0813 
    120 H120       31.8742   33.5173    5.4343 H         1 UNK         0.3038 
    121 H121       33.7976   34.6441    7.2245 H         1 UNK         0.0769 
    122 H122       33.1697   35.3056    4.2933 H         1 UNK         0.0811 
    123 H123       34.1007   36.3159    5.3899 H         1 UNK         0.0811 
    124 H124       32.3986   36.0287    5.7066 H         1 UNK         0.0811 
    125 H125       34.1334   32.3573    4.5599 H         1 UNK         0.3204 
    126 H126       37.0894   32.6602    4.4763 H         1 UNK         0.0748 
    127 H127       35.8958   32.4774    2.2947 H         1 UNK         0.0771 
    128 H128       36.9458   31.0967    2.5701 H         1 UNK         0.0771 
    129 H129       35.2103   30.9284    2.7798 H         1 UNK         0.0771 
    130 H130       34.4956   30.2448    5.1731 H         1 UNK         0.2980 
    131 H131       36.3352   28.2287    6.0266 H         1 UNK         0.0545 
    132 H132       35.5780   30.2690    9.4652 H         1 UNK         0.3459 
    133 H133       34.8214   30.8402    8.0000 H         1 UNK         0.3459 
    134 H134       34.2504   27.0198    6.8471 H         1 UNK         0.0616 
    135 H135       33.3132   28.4201    6.3795 H         1 UNK         0.0616 
    136 H136       31.9967   28.1889    4.2208 H         1 UNK         0.0634 
    137 H137       31.8998   26.5743    4.8879 H         1 UNK         0.0634 
@<TRIPOS>BOND
     1    1    2 1    
     2    1   72 1    
     3    1   73 1    
     4    1   74 1    
     5    2    3 2    
     6    2    4 am   BACKBONE|DICT|INTERRES
     7    4    5 1    
     8    4   75 1    
     9    5    6 1    
    10    5   35 1    
    11    5   76 1    
    12    6    7 1    
    13    6   77 1    
    14    6   78 1    
    15    7    8 1    
    16    8    9 1    
    17    8   79 1    
    18    8   80 1    
    19    9   10 ar   
    20    9   14 ar   
    21   10   11 ar   
    22   10   81 1    
    23   11   12 ar   
    24   11   71 1    
    25   12   13 ar   
    26   12   82 1    
    27   13   14 ar   
    28   13   15 1    
    29   14   83 1    
    30   15   16 1    
    31   15   84 1    
    32   15   85 1    
    33   16   17 1    
    34   17   18 1    
    35   17   86 1    
    36   17   87 1    
    37   18   19 1    
    38   18   37 1    
    39   18   88 1    
    40   19   20 am   BACKBONE|DICT|INTERRES
    41   19   89 1    
    42   20   21 2    
    43   20   22 1    
    44   22   23 1    
    45   22   24 1    
    46   22   90 1    
    47   23   91 1    
    48   23   92 1    
    49   23   93 1    
    50   24   25 am   BACKBONE|DICT|INTERRES
    51   24   94 1    
    52   25   26 2    
    53   25   27 1    
    54   27   28 1    
    55   27   29 1    
    56   27   95 1    
    57   28   96 1    
    58   28   97 1    
    59   28   98 1    
    60   29   30 am   BACKBONE|DICT|INTERRES
    61   29   99 1    
    62   30   31 2    
    63   30   32 1    
    64   32   33 1    
    65   32   34 1    
    66   32  100 1    
    67   33  101 1    
    68   33  102 1    
    69   33  103 1    
    70   34   35 am   BACKBONE|DICT|INTERRES
    71   34  104 1    
    72   35   36 2    
    73   37   38 2    
    74   37   39 am   BACKBONE|DICT|INTERRES
    75   39   40 1    
    76   39  105 1    
    77   40   41 1    
    78   40   42 1    
    79   40  106 1    
    80   41  107 1    
    81   41  108 1    
    82   41  109 1    
    83   42   43 2    
    84   42   44 am   BACKBONE|DICT|INTERRES
    85   44   45 1    
    86   44  110 1    
    87   45   46 1    
    88   45   47 1    
    89   45  111 1    
    90   46  112 1    
    91   46  113 1    
    92   46  114 1    
    93   47   48 2    
    94   47   49 am   BACKBONE|DICT|INTERRES
    95   49   50 1    
    96   49  115 1    
    97   50   51 1    
    98   50   52 1    
    99   50  116 1    
   100   51  117 1    
   101   51  118 1    
   102   51  119 1    
   103   52   53 2    
   104   52   54 am   BACKBONE|DICT|INTERRES
   105   54   55 1    
   106   54  120 1    
   107   55   56 1    
   108   55   57 1    
   109   55  121 1    
   110   56  122 1    
   111   56  123 1    
   112   56  124 1    
   113   57   58 2    
   114   57   59 am   BACKBONE|DICT|INTERRES
   115   59   60 1    
   116   59  125 1    
   117   60   61 1    
   118   60   62 1    
   119   60  126 1    
   120   61  127 1    
   121   61  128 1    
   122   61  129 1    
   123   62   63 2    
   124   62   64 am   BACKBONE|DICT|INTERRES
   125   64   65 1    
   126   64  130 1    
   127   65   66 1    
   128   65   69 1    
   129   65  131 1    
   130   66   67 am   BACKBONE|DICT|INTERRES
   131   66   68 2    
   132   67  132 1    
   133   67  133 1    
   134   69   70 1    
   135   69  134 1    
   136   69  135 1    
   137   70   71 1    
   138   71  136 1    
   139   71  137 1    
@<TRIPOS>SUBSTRUCTURE
     1 UNK         1 GROUP             0       ****    0 ROOT    
