@<TRIPOS>MOLECULE
3R136
137   139    1
SMALL
USER_CHARGES


@<TRIPOS>ATOM
      1 CA         30.5678   21.1475   -3.7189 C.3       0 UNK        -0.1979 
      2 C          29.6946   21.9451   -2.7625 C.2       0 UNK         0.4864 
      3 O          28.7427   22.5919   -3.1996 O.2       0 UNK        -0.5359 
      4 N          29.9899   21.8799   -1.4553 N.am      1 UNK        -0.4318 
      5 CA         29.3206   22.6277   -0.3765 C.3       1 UNK         0.0824 
      6 C6         30.1730   22.6166    0.9217 C.3       12 UNK        -0.0944 
      7 S7         30.0445   24.1799    1.8525 S.3       12 UNK        -0.2672 
      8 C8         29.3441   23.6011    3.4274 C.3       12 UNK         0.0333 
      9 C9         29.0759   24.7758    4.3534 C.ar      12 UNK        -0.0807 
     10 C10        30.1335   25.3856    5.0340 C.ar      12 UNK        -0.0894 
     11 C11        29.9111   26.5006    5.8537 C.ar      12 UNK        -0.0804 
     12 C12        28.6075   26.9893    5.9862 C.ar      12 UNK        -0.0824 
     13 C13        27.5388   26.3840    5.3175 C.ar      12 UNK        -0.0762 
     14 C14        27.7782   25.2681    4.5109 C.ar      12 UNK        -0.0782 
     15 C15        26.1299   26.9500    5.4603 C.3       12 UNK         0.0230 
     16 S16        25.3947   27.4573    3.8675 S.3       12 UNK        -0.2608 
     17 C17        26.6995   28.5075    3.1460 C.3       12 UNK        -0.0989 
     18 CA         27.4208   27.8114    1.9573 C.3       5 UNK         0.0716 
     19 N          26.6910   27.9529    0.7008 N.am      5 UNK        -0.4135 
     20 C          25.8106   27.0862    0.1900 C.2       4 UNK         0.5031 
     21 O          25.4249   26.0729    0.7762 O.2       4 UNK        -0.5229 
     22 CA         25.2348   27.4132   -1.2073 C.3       4 UNK         0.0329 
     23 CB         26.0959   28.4009   -2.0301 C.3       4 UNK        -0.2001 
     24 N          24.9488   26.2037   -1.9921 N.am      4 UNK        -0.4303 
     25 C          25.8256   25.2542   -2.3495 C.2       3 UNK         0.5044 
     26 O          27.0359   25.2995   -2.1145 O.2       3 UNK        -0.5152 
     27 CA         25.2547   24.0610   -3.1286 C.3       3 UNK         0.0319 
     28 CB         25.6676   24.1307   -4.6080 C.3       3 UNK        -0.2001 
     29 N          25.7789   22.8312   -2.5424 N.am      3 UNK        -0.4354 
     30 C          25.1135   22.0533   -1.6751 C.2       2 UNK         0.4964 
     31 O          23.9223   22.1997   -1.3980 O.2       2 UNK        -0.5047 
     32 CA         25.9064   20.9270   -0.9806 C.3       2 UNK         0.0288 
     33 CB         25.7288   19.5970   -1.7310 C.3       2 UNK        -0.2113 
     34 N          27.3343   21.2310   -0.8701 N.am      2 UNK        -0.4145 
     35 C          27.8467   22.2191   -0.1212 C.2       1 UNK         0.5006 
     36 O          27.1859   22.8184    0.7275 O.2       1 UNK        -0.5103 
     37 C          28.8047   28.4327    1.7256 C.2       5 UNK         0.5055 
     38 O          28.9028   29.4462    1.0281 O.2       5 UNK        -0.5220 
     39 N          29.8405   27.8576    2.3515 N.am      6 UNK        -0.4450 
     40 CA         31.2172   28.3680    2.3066 C.3       6 UNK         0.0367 
     41 CB         32.2044   27.2211    2.5739 C.3       6 UNK        -0.1929 
     42 C          31.4682   29.5417    3.2718 C.2       6 UNK         0.5070 
     43 O          32.5801   30.0701    3.3001 O.2       6 UNK        -0.5237 
     44 N          30.4492   29.9493    4.0432 N.am      7 UNK        -0.4739 
     45 CA         30.4839   31.0595    5.0040 C.3       7 UNK         0.0276 
     46 CB         29.1194   31.1664    5.7017 C.3       7 UNK        -0.1927 
     47 C          30.8852   32.4134    4.3892 C.2       7 UNK         0.5013 
     48 O          31.5014   33.2269    5.0774 O.2       7 UNK        -0.5193 
     49 N          30.6032   32.6010    3.0913 N.am      8 UNK        -0.4253 
     50 CA         31.0595   33.7362    2.2812 C.3       8 UNK         0.0242 
     51 CB         30.3981   33.6601    0.8956 C.3       8 UNK        -0.2000 
     52 C          32.5935   33.8279    2.1401 C.2       8 UNK         0.4948 
     53 O          33.1082   34.9231    1.9134 O.2       8 UNK        -0.5275 
     54 N          33.2915   32.6951    2.3002 N.am      9 UNK        -0.4246 
     55 CA         34.7498   32.5805    2.3403 C.3       9 UNK         0.0261 
     56 CB         35.1878   31.5352    1.2973 C.3       9 UNK        -0.1959 
     57 C          35.2312   32.2079    3.7571 C.2       9 UNK         0.5033 
     58 O          36.2983   31.6061    3.8951 O.2       9 UNK        -0.5390 
     59 N          34.4265   32.5289    4.7854 N.am      10 UNK        -0.4215 
     60 CA         34.6425   32.2478    6.2123 C.3       10 UNK         0.0240 
     61 CB         35.8120   33.0947    6.7580 C.3       10 UNK        -0.1982 
     62 C          34.7946   30.7471    6.5406 C.2       10 UNK         0.4970 
     63 O          35.4395   30.4033    7.5326 O.2       10 UNK        -0.4916 
     64 N          34.2055   29.8831    5.7027 N.am      11 UNK        -0.4279 
     65 CA         34.3355   28.4207    5.7363 C.3       11 UNK         0.1003 
     66 C          35.7501   27.8861    5.3533 C.2       11 UNK         0.5709 
     67 N          36.6213   28.6877    4.7486 N.am      11 UNK        -0.7358 
     68 O          36.0585   26.7179    5.5762 O.2       11 UNK        -0.4999 
     69 C69        33.7382   27.7897    7.0327 C.3       12 UNK        -0.0954 
     70 S70        32.6429   26.3804    6.6619 S.3       12 UNK        -0.2268 
     71 C71        31.0368   27.2446    6.5761 C.3       12 UNK         0.0203 
     72 H72        31.0352   21.8150   -4.4424 H         1 UNK         0.0888 
     73 H73        31.3573   20.6067   -3.1973 H         1 UNK         0.0888 
     74 H74        29.9632   20.4236   -4.2645 H         1 UNK         0.0888 
     75 H75        30.7671   21.3043   -1.1624 H         1 UNK         0.3017 
     76 H76        29.2681   23.6588   -0.7350 H         1 UNK         0.0873 
     77 H77        31.2311   22.5030    0.6803 H         1 UNK         0.0745 
     78 H78        29.9264   21.7632    1.5567 H         1 UNK         0.0745 
     79 H79        30.0376   22.9053    3.9022 H         1 UNK         0.0705 
     80 H80        28.4247   23.0459    3.2349 H         1 UNK         0.0705 
     81 H81        31.1305   24.9932    4.8941 H         1 UNK         0.1334 
     82 H82        28.4257   27.8534    6.6107 H         1 UNK         0.1417 
     83 H83        26.9562   24.8046    3.9809 H         1 UNK         0.1562 
     84 H84        26.1234   27.8088    6.1334 H         1 UNK         0.0748 
     85 H85        25.4891   26.1966    5.9204 H         1 UNK         0.0748 
     86 H86        27.3965   28.7781    3.9406 H         1 UNK         0.0940 
     87 H87        26.2513   29.4498    2.8251 H         1 UNK         0.0940 
     88 H88        27.5665   26.7499    2.1676 H         1 UNK         0.0703 
     89 H89        26.9944   28.7403    0.1421 H         1 UNK         0.3081 
     90 H90        24.2700   27.8897   -1.0275 H         1 UNK         0.0719 
     91 H91        27.1172   28.0405   -2.1612 H         1 UNK         0.0809 
     92 H92        25.6728   28.5564   -3.0227 H         1 UNK         0.0809 
     93 H93        26.1461   29.3813   -1.5551 H         1 UNK         0.0809 
     94 H94        23.9739   26.0539   -2.2120 H         1 UNK         0.2990 
     95 H95        24.1640   24.0768   -3.0754 H         1 UNK         0.0690 
     96 H96        25.2654   23.2884   -5.1709 H         1 UNK         0.0788 
     97 H97        26.7525   24.1231   -4.7244 H         1 UNK         0.0788 
     98 H98        25.2945   25.0432   -5.0749 H         1 UNK         0.0788 
     99 H99        26.7753   22.6822   -2.6771 H         1 UNK         0.2993 
    100 H100       25.5031   20.8133    0.0281 H         1 UNK         0.0949 
    101 H101       26.2315   18.7792   -1.2141 H         1 UNK         0.0767 
    102 H102       24.6735   19.3308   -1.8066 H         1 UNK         0.0767 
    103 H103       26.1256   19.6493   -2.7458 H         1 UNK         0.0767 
    104 H104       27.9459   20.7867   -1.5390 H         1 UNK         0.3013 
    105 H105       29.6850   27.0242    2.9046 H         1 UNK         0.3121 
    106 H106       31.4158   28.7441    1.3007 H         1 UNK         0.0774 
    107 H107       32.0863   26.8082    3.5744 H         1 UNK         0.0815 
    108 H108       32.0752   26.4112    1.8566 H         1 UNK         0.0815 
    109 H109       33.2362   27.5633    2.4829 H         1 UNK         0.0815 
    110 H110       29.5760   29.4537    3.9577 H         1 UNK         0.2987 
    111 H111       31.2357   30.8162    5.7578 H         1 UNK         0.0949 
    112 H112       28.3154   31.3637    4.9915 H         1 UNK         0.0806 
    113 H113       28.8758   30.2520    6.2419 H         1 UNK         0.0806 
    114 H114       29.1165   31.9785    6.4304 H         1 UNK         0.0806 
    115 H115       30.0974   31.8722    2.6076 H         1 UNK         0.3010 
    116 H116       30.7240   34.6511    2.7741 H         1 UNK         0.0829 
    117 H117       29.3109   33.6865    0.9720 H         1 UNK         0.0813 
    118 H118       30.6975   34.5044    0.2727 H         1 UNK         0.0813 
    119 H119       30.6760   32.7484    0.3648 H         1 UNK         0.0813 
    120 H120       32.7929   31.8355    2.5146 H         1 UNK         0.3038 
    121 H121       35.2167   33.5342    2.0871 H         1 UNK         0.0769 
    122 H122       36.2748   31.4622    1.2443 H         1 UNK         0.0811 
    123 H123       34.8342   31.7983    0.3004 H         1 UNK         0.0811 
    124 H124       34.8042   30.5427    1.5385 H         1 UNK         0.0811 
    125 H125       33.5489   32.9924    4.5756 H         1 UNK         0.3204 
    126 H126       33.7350   32.5722    6.7236 H         1 UNK         0.0748 
    127 H127       35.8909   33.0053    7.8422 H         1 UNK         0.0771 
    128 H128       36.7679   32.7829    6.3356 H         1 UNK         0.0771 
    129 H129       35.6747   34.1522    6.5325 H         1 UNK         0.0771 
    130 H130       33.7154   30.2410    4.8891 H         1 UNK         0.2980 
    131 H131       33.7167   28.1063    4.8980 H         1 UNK         0.0545 
    132 H132       37.5267   28.3246    4.4980 H         1 UNK         0.3459 
    133 H133       36.3945   29.6546    4.5432 H         1 UNK         0.3459 
    134 H134       33.1601   28.5230    7.5974 H         1 UNK         0.0616 
    135 H135       34.5228   27.4602    7.7160 H         1 UNK         0.0616 
    136 H136       31.1846   28.1992    6.0724 H         1 UNK         0.0634 
    137 H137       30.7236   27.4771    7.5950 H         1 UNK         0.0634 
@<TRIPOS>BOND
     1    1    2 1    
     2    1   72 1    
     3    1   73 1    
     4    1   74 1    
     5    2    3 2    
     6    2    4 am   BACKBONE|DICT|INTERRES
     7    4    5 1    
     8    4   75 1    
     9    5    6 1    
    10    5   35 1    
    11    5   76 1    
    12    6    7 1    
    13    6   77 1    
    14    6   78 1    
    15    7    8 1    
    16    8    9 1    
    17    8   79 1    
    18    8   80 1    
    19    9   10 ar   
    20    9   14 ar   
    21   10   11 ar   
    22   10   81 1    
    23   11   12 ar   
    24   11   71 1    
    25   12   13 ar   
    26   12   82 1    
    27   13   14 ar   
    28   13   15 1    
    29   14   83 1    
    30   15   16 1    
    31   15   84 1    
    32   15   85 1    
    33   16   17 1    
    34   17   18 1    
    35   17   86 1    
    36   17   87 1    
    37   18   19 1    
    38   18   37 1    
    39   18   88 1    
    40   19   20 am   BACKBONE|DICT|INTERRES
    41   19   89 1    
    42   20   21 2    
    43   20   22 1    
    44   22   23 1    
    45   22   24 1    
    46   22   90 1    
    47   23   91 1    
    48   23   92 1    
    49   23   93 1    
    50   24   25 am   BACKBONE|DICT|INTERRES
    51   24   94 1    
    52   25   26 2    
    53   25   27 1    
    54   27   28 1    
    55   27   29 1    
    56   27   95 1    
    57   28   96 1    
    58   28   97 1    
    59   28   98 1    
    60   29   30 am   BACKBONE|DICT|INTERRES
    61   29   99 1    
    62   30   31 2    
    63   30   32 1    
    64   32   33 1    
    65   32   34 1    
    66   32  100 1    
    67   33  101 1    
    68   33  102 1    
    69   33  103 1    
    70   34   35 am   BACKBONE|DICT|INTERRES
    71   34  104 1    
    72   35   36 2    
    73   37   38 2    
    74   37   39 am   BACKBONE|DICT|INTERRES
    75   39   40 1    
    76   39  105 1    
    77   40   41 1    
    78   40   42 1    
    79   40  106 1    
    80   41  107 1    
    81   41  108 1    
    82   41  109 1    
    83   42   43 2    
    84   42   44 am   BACKBONE|DICT|INTERRES
    85   44   45 1    
    86   44  110 1    
    87   45   46 1    
    88   45   47 1    
    89   45  111 1    
    90   46  112 1    
    91   46  113 1    
    92   46  114 1    
    93   47   48 2    
    94   47   49 am   BACKBONE|DICT|INTERRES
    95   49   50 1    
    96   49  115 1    
    97   50   51 1    
    98   50   52 1    
    99   50  116 1    
   100   51  117 1    
   101   51  118 1    
   102   51  119 1    
   103   52   53 2    
   104   52   54 am   BACKBONE|DICT|INTERRES
   105   54   55 1    
   106   54  120 1    
   107   55   56 1    
   108   55   57 1    
   109   55  121 1    
   110   56  122 1    
   111   56  123 1    
   112   56  124 1    
   113   57   58 2    
   114   57   59 am   BACKBONE|DICT|INTERRES
   115   59   60 1    
   116   59  125 1    
   117   60   61 1    
   118   60   62 1    
   119   60  126 1    
   120   61  127 1    
   121   61  128 1    
   122   61  129 1    
   123   62   63 2    
   124   62   64 am   BACKBONE|DICT|INTERRES
   125   64   65 1    
   126   64  130 1    
   127   65   66 1    
   128   65   69 1    
   129   65  131 1    
   130   66   67 am   BACKBONE|DICT|INTERRES
   131   66   68 2    
   132   67  132 1    
   133   67  133 1    
   134   69   70 1    
   135   69  134 1    
   136   69  135 1    
   137   70   71 1    
   138   71  136 1    
   139   71  137 1    
@<TRIPOS>SUBSTRUCTURE
     1 UNK         1 GROUP             0       ****    0 ROOT    
