@<TRIPOS>MOLECULE
3R136
137   139    1
SMALL
USER_CHARGES


@<TRIPOS>ATOM
      1 CA         28.4527   22.0564    4.4365 C.3       0 UNK        -0.1979 
      2 C          28.1578   21.5735    3.0239 C.2       0 UNK         0.4864 
      3 O          27.0756   21.0433    2.7717 O.2       0 UNK        -0.5359 
      4 N          29.1178   21.7544    2.1061 N.am      1 UNK        -0.4318 
      5 CA         29.0609   21.3452    0.6941 C.3       1 UNK         0.0824 
      6 C6         30.3952   21.6109   -0.0563 C.3       12 UNK        -0.0944 
      7 S7         31.8861   21.0189    0.8209 S.3       12 UNK        -0.2672 
      8 C8         33.0554   22.4001    0.5504 C.3       12 UNK         0.0333 
      9 C9         33.0479   23.4470    1.6641 C.ar      12 UNK        -0.0807 
     10 C10        34.2606   23.9180    2.1826 C.ar      12 UNK        -0.0894 
     11 C11        34.2789   24.9004    3.1786 C.ar      12 UNK        -0.0804 
     12 C12        33.0698   25.3792    3.6868 C.ar      12 UNK        -0.0824 
     13 C13        31.8508   24.9218    3.1833 C.ar      12 UNK        -0.0762 
     14 C14        31.8499   23.9793    2.1536 C.ar      12 UNK        -0.0782 
     15 C15        30.5340   25.4316    3.7560 C.3       12 UNK         0.0230 
     16 S16        30.4407   27.2474    3.8455 S.3       12 UNK        -0.2608 
     17 C17        30.6024   27.7321    2.0919 C.3       12 UNK        -0.0989 
     18 CA         29.3236   27.4496    1.2561 C.3       5 UNK         0.0716 
     19 N          28.0943   27.9457    1.8857 N.am      5 UNK        -0.4135 
     20 C          27.7593   29.2279    2.0967 C.2       4 UNK         0.5031 
     21 O          28.4984   30.1765    1.8262 O.2       4 UNK        -0.5229 
     22 CA         26.3438   29.4986    2.6522 C.3       4 UNK         0.0329 
     23 CB         25.7988   30.8704    2.2024 C.3       4 UNK        -0.2001 
     24 N          25.3752   28.4331    2.3458 N.am      4 UNK        -0.4303 
     25 C          25.0643   27.9550    1.1314 C.2       3 UNK         0.5044 
     26 O          25.5187   28.3964    0.0725 O.2       3 UNK        -0.5152 
     27 CA         24.1590   26.7133    1.1011 C.3       3 UNK         0.0319 
     28 CB         22.7925   27.0514    0.4845 C.3       3 UNK        -0.2001 
     29 N          24.7815   25.6234    0.3430 N.am      3 UNK        -0.4354 
     30 C          25.9598   25.0540    0.6344 C.2       2 UNK         0.4964 
     31 O          26.6474   25.3453    1.6192 O.2       2 UNK        -0.5047 
     32 CA         26.4753   24.0161   -0.3677 C.3       2 UNK         0.0288 
     33 CB         27.0539   24.7062   -1.6182 C.3       2 UNK        -0.2113 
     34 N          27.5111   23.2140    0.2749 N.am      2 UNK        -0.4145 
     35 C          27.9026   21.9900   -0.1015 C.2       1 UNK         0.5006 
     36 O          27.4093   21.3774   -1.0506 O.2       1 UNK        -0.5103 
     37 C          29.4645   27.9095   -0.2157 C.2       5 UNK         0.5055 
     38 O          30.5847   27.9691   -0.7245 O.2       5 UNK        -0.5220 
     39 N          28.3339   28.2469   -0.8636 N.am      6 UNK        -0.4450 
     40 CA         28.2184   28.8824   -2.1827 C.3       6 UNK         0.0367 
     41 CB         28.7076   27.9401   -3.3037 C.3       6 UNK        -0.1929 
     42 C          28.8706   30.2819   -2.2464 C.2       6 UNK         0.5070 
     43 O          29.2680   30.7217   -3.3269 O.2       6 UNK        -0.5237 
     44 N          28.9671   30.9612   -1.0968 N.am      7 UNK        -0.4739 
     45 CA         29.5725   32.2782   -0.9344 C.3       7 UNK         0.0276 
     46 CB         31.0931   32.1222   -0.7078 C.3       7 UNK        -0.1927 
     47 C          28.8241   33.0055    0.1927 C.2       7 UNK         0.5013 
     48 O          27.6175   33.2214    0.0656 O.2       7 UNK        -0.5193 
     49 N          29.5328   33.3546    1.2716 N.am      8 UNK        -0.4253 
     50 CA         28.9904   33.9611    2.4858 C.3       8 UNK         0.0242 
     51 CB         29.1766   35.4902    2.4302 C.3       8 UNK        -0.2000 
     52 C          29.6532   33.3067    3.7084 C.2       8 UNK         0.4948 
     53 O          30.1605   34.0126    4.5821 O.2       8 UNK        -0.5275 
     54 N          29.6441   31.9649    3.7188 N.am      9 UNK        -0.4246 
     55 CA         30.2951   31.0423    4.6571 C.3       9 UNK         0.0261 
     56 CB         29.9100   31.3338    6.1227 C.3       9 UNK        -0.1959 
     57 C          31.8219   30.9620    4.4660 C.2       9 UNK         0.5033 
     58 O          32.4370   31.8514    3.8725 O.2       9 UNK        -0.5390 
     59 N          32.4023   29.8704    4.9722 N.am      10 UNK        -0.4215 
     60 CA         33.8176   29.5124    4.9176 C.3       10 UNK         0.0240 
     61 CB         34.2120   29.1216    3.4775 C.3       10 UNK        -0.1982 
     62 C          34.0476   28.3549    5.9038 C.2       10 UNK         0.4970 
     63 O          33.0767   27.8433    6.4691 O.2       10 UNK        -0.4916 
     64 N          35.3148   27.9553    6.0877 N.am      11 UNK        -0.4279 
     65 CA         35.7544   26.8597    6.9797 C.3       11 UNK         0.1003 
     66 C          35.5116   27.1277    8.5010 C.2       11 UNK         0.5709 
     67 N          35.2777   28.3639    8.9266 N.am      11 UNK        -0.7358 
     68 O          35.5792   26.2145    9.3208 O.2       11 UNK        -0.4999 
     69 C69        35.2567   25.4521    6.5092 C.3       12 UNK        -0.0954 
     70 S70        36.2575   24.7313    5.1608 S.3       12 UNK        -0.2268 
     71 C71        35.5982   25.4986    3.6485 C.3       12 UNK         0.0203 
     72 H72        27.7789   22.8708    4.7018 H         1 UNK         0.0888 
     73 H73        28.3048   21.2453    5.1490 H         1 UNK         0.0888 
     74 H74        29.4769   22.4142    4.5411 H         1 UNK         0.0888 
     75 H75        30.0133   22.1084    2.4075 H         1 UNK         0.3017 
     76 H76        28.8834   20.2676    0.6919 H         1 UNK         0.0873 
     77 H77        30.5060   22.6749   -0.2732 H         1 UNK         0.0745 
     78 H78        30.3757   21.1175   -1.0302 H         1 UNK         0.0745 
     79 H79        32.8531   22.8850   -0.4055 H         1 UNK         0.0705 
     80 H80        34.0522   21.9658    0.4593 H         1 UNK         0.0705 
     81 H81        35.1956   23.5417    1.7902 H         1 UNK         0.1334 
     82 H82        33.0684   26.1333    4.4576 H         1 UNK         0.1417 
     83 H83        30.9104   23.6622    1.7351 H         1 UNK         0.1562 
     84 H84        30.4173   25.0311    4.7638 H         1 UNK         0.0748 
     85 H85        29.6831   25.0628    3.1818 H         1 UNK         0.0748 
     86 H86        31.4659   27.2202    1.6633 H         1 UNK         0.0940 
     87 H87        30.8459   28.7958    2.0634 H         1 UNK         0.0940 
     88 H88        29.2053   26.3672    1.1986 H         1 UNK         0.0703 
     89 H89        27.4191   27.2242    2.1138 H         1 UNK         0.3081 
     90 H90        26.4468   29.5206    3.7381 H         1 UNK         0.0719 
     91 H91        24.8016   31.0534    2.6020 H         1 UNK         0.0809 
     92 H92        25.7451   30.9477    1.1156 H         1 UNK         0.0809 
     93 H93        26.4389   31.6816    2.5510 H         1 UNK         0.0809 
     94 H94        24.9643   27.9795    3.1509 H         1 UNK         0.2990 
     95 H95        23.9994   26.3589    2.1217 H         1 UNK         0.0690 
     96 H96        22.1260   26.1887    0.4960 H         1 UNK         0.0788 
     97 H97        22.8882   27.3893   -0.5485 H         1 UNK         0.0788 
     98 H98        22.2991   27.8482    1.0430 H         1 UNK         0.0788 
     99 H99        24.3088   25.3464   -0.5051 H         1 UNK         0.2993 
    100 H100       25.6424   23.3684   -0.6506 H         1 UNK         0.0949 
    101 H101       27.9184   25.3225   -1.3696 H         1 UNK         0.0767 
    102 H102       27.3695   23.9771   -2.3646 H         1 UNK         0.0767 
    103 H103       26.3161   25.3536   -2.0939 H         1 UNK         0.0767 
    104 H104       27.9001   23.6309    1.1106 H         1 UNK         0.3013 
    105 H105       27.4531   28.1781   -0.3604 H         1 UNK         0.3121 
    106 H106       27.1512   29.0474   -2.3383 H         1 UNK         0.0774 
    107 H107       28.4906   28.3579   -4.2874 H         1 UNK         0.0815 
    108 H108       29.7839   27.7740   -3.2542 H         1 UNK         0.0815 
    109 H109       28.2141   26.9704   -3.2526 H         1 UNK         0.0815 
    110 H110       28.5995   30.5508   -0.2442 H         1 UNK         0.2987 
    111 H111       29.4137   32.8676   -1.8401 H         1 UNK         0.0949 
    112 H112       31.5665   31.6439   -1.5656 H         1 UNK         0.0806 
    113 H113       31.5792   33.0903   -0.5798 H         1 UNK         0.0806 
    114 H114       31.3151   31.5099    0.1678 H         1 UNK         0.0806 
    115 H115       30.5130   33.1088    1.3058 H         1 UNK         0.3010 
    116 H116       27.9220   33.7486    2.5639 H         1 UNK         0.0829 
    117 H117       28.6695   35.9191    1.5658 H         1 UNK         0.0813 
    118 H118       28.7612   35.9678    3.3184 H         1 UNK         0.0813 
    119 H119       30.2304   35.7650    2.3716 H         1 UNK         0.0813 
    120 H120       29.2148   31.4961    2.9222 H         1 UNK         0.3038 
    121 H121       29.8918   30.0621    4.4031 H         1 UNK         0.0769 
    122 H122       30.3669   32.2528    6.4904 H         1 UNK         0.0811 
    123 H123       28.8301   31.4244    6.2392 H         1 UNK         0.0811 
    124 H124       30.2384   30.5286    6.7808 H         1 UNK         0.0811 
    125 H125       31.8445   29.1847    5.4707 H         1 UNK         0.3204 
    126 H126       34.4096   30.3689    5.2458 H         1 UNK         0.0748 
    127 H127       35.2744   28.8890    3.4050 H         1 UNK         0.0771 
    128 H128       33.6546   28.2512    3.1295 H         1 UNK         0.0771 
    129 H129       34.0237   29.9334    2.7751 H         1 UNK         0.0771 
    130 H130       36.0558   28.4448    5.6072 H         1 UNK         0.2980 
    131 H131       36.8423   26.8551    6.9054 H         1 UNK         0.0545 
    132 H132       35.1378   28.5268    9.9112 H         1 UNK         0.3459 
    133 H133       35.2378   29.1319    8.2768 H         1 UNK         0.3459 
    134 H134       35.3307   24.7242    7.3180 H         1 UNK         0.0616 
    135 H135       34.2018   25.4589    6.2443 H         1 UNK         0.0616 
    136 H136       36.3466   25.3876    2.8625 H         1 UNK         0.0634 
    137 H137       35.4916   26.5701    3.7967 H         1 UNK         0.0634 
@<TRIPOS>BOND
     1    1    2 1    
     2    1   72 1    
     3    1   73 1    
     4    1   74 1    
     5    2    3 2    
     6    2    4 am   BACKBONE|DICT|INTERRES
     7    4    5 1    
     8    4   75 1    
     9    5    6 1    
    10    5   35 1    
    11    5   76 1    
    12    6    7 1    
    13    6   77 1    
    14    6   78 1    
    15    7    8 1    
    16    8    9 1    
    17    8   79 1    
    18    8   80 1    
    19    9   10 ar   
    20    9   14 ar   
    21   10   11 ar   
    22   10   81 1    
    23   11   12 ar   
    24   11   71 1    
    25   12   13 ar   
    26   12   82 1    
    27   13   14 ar   
    28   13   15 1    
    29   14   83 1    
    30   15   16 1    
    31   15   84 1    
    32   15   85 1    
    33   16   17 1    
    34   17   18 1    
    35   17   86 1    
    36   17   87 1    
    37   18   19 1    
    38   18   37 1    
    39   18   88 1    
    40   19   20 am   BACKBONE|DICT|INTERRES
    41   19   89 1    
    42   20   21 2    
    43   20   22 1    
    44   22   23 1    
    45   22   24 1    
    46   22   90 1    
    47   23   91 1    
    48   23   92 1    
    49   23   93 1    
    50   24   25 am   BACKBONE|DICT|INTERRES
    51   24   94 1    
    52   25   26 2    
    53   25   27 1    
    54   27   28 1    
    55   27   29 1    
    56   27   95 1    
    57   28   96 1    
    58   28   97 1    
    59   28   98 1    
    60   29   30 am   BACKBONE|DICT|INTERRES
    61   29   99 1    
    62   30   31 2    
    63   30   32 1    
    64   32   33 1    
    65   32   34 1    
    66   32  100 1    
    67   33  101 1    
    68   33  102 1    
    69   33  103 1    
    70   34   35 am   BACKBONE|DICT|INTERRES
    71   34  104 1    
    72   35   36 2    
    73   37   38 2    
    74   37   39 am   BACKBONE|DICT|INTERRES
    75   39   40 1    
    76   39  105 1    
    77   40   41 1    
    78   40   42 1    
    79   40  106 1    
    80   41  107 1    
    81   41  108 1    
    82   41  109 1    
    83   42   43 2    
    84   42   44 am   BACKBONE|DICT|INTERRES
    85   44   45 1    
    86   44  110 1    
    87   45   46 1    
    88   45   47 1    
    89   45  111 1    
    90   46  112 1    
    91   46  113 1    
    92   46  114 1    
    93   47   48 2    
    94   47   49 am   BACKBONE|DICT|INTERRES
    95   49   50 1    
    96   49  115 1    
    97   50   51 1    
    98   50   52 1    
    99   50  116 1    
   100   51  117 1    
   101   51  118 1    
   102   51  119 1    
   103   52   53 2    
   104   52   54 am   BACKBONE|DICT|INTERRES
   105   54   55 1    
   106   54  120 1    
   107   55   56 1    
   108   55   57 1    
   109   55  121 1    
   110   56  122 1    
   111   56  123 1    
   112   56  124 1    
   113   57   58 2    
   114   57   59 am   BACKBONE|DICT|INTERRES
   115   59   60 1    
   116   59  125 1    
   117   60   61 1    
   118   60   62 1    
   119   60  126 1    
   120   61  127 1    
   121   61  128 1    
   122   61  129 1    
   123   62   63 2    
   124   62   64 am   BACKBONE|DICT|INTERRES
   125   64   65 1    
   126   64  130 1    
   127   65   66 1    
   128   65   69 1    
   129   65  131 1    
   130   66   67 am   BACKBONE|DICT|INTERRES
   131   66   68 2    
   132   67  132 1    
   133   67  133 1    
   134   69   70 1    
   135   69  134 1    
   136   69  135 1    
   137   70   71 1    
   138   71  136 1    
   139   71  137 1    
@<TRIPOS>SUBSTRUCTURE
     1 UNK         1 GROUP             0       ****    0 ROOT    
