@<TRIPOS>MOLECULE
3R136
137   139    1
SMALL
USER_CHARGES


@<TRIPOS>ATOM
      1 CA         29.3405   26.5366   -3.8533 C.3       0 UNK        -0.1979 
      2 C          29.6020   25.5614   -2.7155 C.2       0 UNK         0.4864 
      3 O          29.1509   24.4166   -2.7780 O.2       0 UNK        -0.5359 
      4 N          30.3128   26.0152   -1.6725 N.am      1 UNK        -0.4318 
      5 CA         30.6529   25.2783   -0.4476 C.3       1 UNK         0.0824 
      6 C6         31.7799   24.2227   -0.6628 C.3       12 UNK        -0.0944 
      7 S7         33.0551   24.2701    0.6402 S.3       12 UNK        -0.2672 
      8 C8         32.2648   23.4083    2.0457 C.3       12 UNK         0.0333 
      9 C9         31.4151   24.3149    2.9376 C.ar      12 UNK        -0.0807 
     10 C10        31.8328   25.6119    3.2604 C.ar      12 UNK        -0.0894 
     11 C11        31.0697   26.4220    4.1066 C.ar      12 UNK        -0.0804 
     12 C12        29.8840   25.9180    4.6474 C.ar      12 UNK        -0.0824 
     13 C13        29.4314   24.6412    4.3089 C.ar      12 UNK        -0.0762 
     14 C14        30.2106   23.8382    3.4686 C.ar      12 UNK        -0.0782 
     15 C15        28.1001   24.1345    4.8491 C.3       12 UNK         0.0230 
     16 S16        26.6942   24.6586    3.8073 S.3       12 UNK        -0.2608 
     17 C17        26.3840   26.3692    4.3631 C.3       12 UNK        -0.0989 
     18 CA         26.9992   27.4323    3.4199 C.3       5 UNK         0.0716 
     19 N          26.4272   27.4115    2.0688 N.am      5 UNK        -0.4135 
     20 C          26.8891   28.1514    1.0491 C.2       4 UNK         0.5031 
     21 O          27.8324   28.9396    1.1525 O.2       4 UNK        -0.5229 
     22 CA         26.2091   27.9515   -0.3127 C.3       4 UNK         0.0329 
     23 CB         26.8632   28.7834   -1.4363 C.3       4 UNK        -0.2001 
     24 N          26.2257   26.5351   -0.6784 N.am      4 UNK        -0.4303 
     25 C          25.3097   25.9381   -1.4554 C.2       3 UNK         0.5044 
     26 O          24.3106   26.5178   -1.8838 O.2       3 UNK        -0.5152 
     27 CA         25.5285   24.4649   -1.8564 C.3       3 UNK         0.0319 
     28 CB         25.7371   24.3416   -3.3755 C.3       3 UNK        -0.2001 
     29 N          26.6607   23.8393   -1.1711 N.am      3 UNK        -0.4354 
     30 C          26.5893   23.2757    0.0436 C.2       2 UNK         0.4964 
     31 O          25.5380   23.1469    0.6711 O.2       2 UNK        -0.5047 
     32 CA         27.9046   22.7824    0.6791 C.3       2 UNK         0.0288 
     33 CB         28.0490   21.2610    0.5174 C.3       2 UNK        -0.2113 
     34 N          29.1107   23.4348    0.1607 N.am      2 UNK        -0.4145 
     35 C          29.3730   24.7484    0.2338 C.2       1 UNK         0.5006 
     36 O          28.6115   25.5566    0.7587 O.2       1 UNK        -0.5103 
     37 C          26.9187   28.8363    4.0521 C.2       5 UNK         0.5055 
     38 O          25.9482   29.5619    3.8201 O.2       5 UNK        -0.5220 
     39 N          27.9661   29.1982    4.8067 N.am      6 UNK        -0.4450 
     40 CA         28.2717   30.5163    5.3805 C.3       6 UNK         0.0367 
     41 CB         27.1501   31.0369    6.3006 C.3       6 UNK        -0.1929 
     42 C          28.6690   31.5594    4.3210 C.2       6 UNK         0.5070 
     43 O          29.6882   32.2257    4.4955 O.2       6 UNK        -0.5237 
     44 N          27.9033   31.6548    3.2254 N.am      7 UNK        -0.4739 
     45 CA         28.1558   32.5385    2.0814 C.3       7 UNK         0.0276 
     46 CB         26.9735   32.4596    1.1028 C.3       7 UNK        -0.1927 
     47 C          29.4843   32.2448    1.3608 C.2       7 UNK         0.5013 
     48 O          30.1505   33.1817    0.9197 O.2       7 UNK        -0.5193 
     49 N          29.8649   30.9605    1.2931 N.am      8 UNK        -0.4253 
     50 CA         31.1525   30.4862    0.7770 C.3       8 UNK         0.0242 
     51 CB         31.0885   28.9611    0.5880 C.3       8 UNK        -0.2000 
     52 C          32.3692   30.8781    1.6408 C.2       8 UNK         0.4948 
     53 O          33.4929   30.7962    1.1431 O.2       8 UNK        -0.5275 
     54 N          32.1409   31.2865    2.9003 N.am      9 UNK        -0.4246 
     55 CA         33.0854   31.8112    3.9001 C.3       9 UNK         0.0261 
     56 CB         33.7044   33.1405    3.4277 C.3       9 UNK        -0.1959 
     57 C          34.1807   30.8402    4.3790 C.2       9 UNK         0.5033 
     58 O          34.4244   30.7580    5.5841 O.2       9 UNK        -0.5390 
     59 N          34.8241   30.1207    3.4539 N.am      10 UNK        -0.4215 
     60 CA         35.9023   29.1583    3.6959 C.3       10 UNK         0.0240 
     61 CB         36.7136   28.9913    2.3973 C.3       10 UNK        -0.1982 
     62 C          35.3673   27.8186    4.2383 C.2       10 UNK         0.4970 
     63 O          35.5602   26.7754    3.6120 O.2       10 UNK        -0.4916 
     64 N          34.6727   27.8793    5.3794 N.am      11 UNK        -0.4279 
     65 CA         34.0141   26.7343    6.0256 C.3       11 UNK         0.1003 
     66 C          34.9756   25.7974    6.8142 C.2       11 UNK         0.5709 
     67 N          36.2404   26.1508    7.0121 N.am      11 UNK        -0.7358 
     68 O          34.5676   24.7232    7.2491 O.2       11 UNK        -0.4999 
     69 C69        32.8184   27.1806    6.9117 C.3       12 UNK        -0.0954 
     70 S70        31.5603   28.2807    6.1583 S.3       12 UNK        -0.2268 
     71 C71        31.5066   27.8553    4.3854 C.3       12 UNK         0.0203 
     72 H72        29.9049   27.4616   -3.7359 H         1 UNK         0.0888 
     73 H73        29.6227   26.0872   -4.8049 H         1 UNK         0.0888 
     74 H74        28.2812   26.7884   -3.8949 H         1 UNK         0.0888 
     75 H75        30.6329   26.9726   -1.6907 H         1 UNK         0.3017 
     76 H76        31.0347   26.0435    0.2298 H         1 UNK         0.0873 
     77 H77        31.4265   23.2017   -0.8042 H         1 UNK         0.0745 
     78 H78        32.3122   24.4490   -1.5883 H         1 UNK         0.0745 
     79 H79        33.0519   22.9748    2.6639 H         1 UNK         0.0705 
     80 H80        31.6776   22.5704    1.6671 H         1 UNK         0.0705 
     81 H81        32.7589   25.9937    2.8522 H         1 UNK         0.1334 
     82 H82        29.2952   26.5291    5.3151 H         1 UNK         0.1417 
     83 H83        29.8725   22.8413    3.2208 H         1 UNK         0.1562 
     84 H84        27.9521   24.4681    5.8772 H         1 UNK         0.0748 
     85 H85        28.1110   23.0442    4.8884 H         1 UNK         0.0748 
     86 H86        26.7649   26.4789    5.3802 H         1 UNK         0.0940 
     87 H87        25.3042   26.5124    4.4373 H         1 UNK         0.0940 
     88 H88        28.0546   27.2007    3.2785 H         1 UNK         0.0703 
     89 H89        25.6660   26.7693    1.9097 H         1 UNK         0.3081 
     90 H90        25.1767   28.2861   -0.1917 H         1 UNK         0.0719 
     91 H91        27.9032   28.4946   -1.5925 H         1 UNK         0.0809 
     92 H92        26.3353   28.6626   -2.3822 H         1 UNK         0.0809 
     93 H93        26.8520   29.8468   -1.1952 H         1 UNK         0.0809 
     94 H94        27.0038   25.9986   -0.3019 H         1 UNK         0.2990 
     95 H95        24.6142   23.9240   -1.6032 H         1 UNK         0.0690 
     96 H96        25.8636   23.3013   -3.6756 H         1 UNK         0.0788 
     97 H97        26.6137   24.8956   -3.7107 H         1 UNK         0.0788 
     98 H98        24.8777   24.7326   -3.9219 H         1 UNK         0.0788 
     99 H99        27.5636   23.9068   -1.6333 H         1 UNK         0.2993 
    100 H100       27.8456   23.0068    1.7443 H         1 UNK         0.0949 
    101 H101       28.1392   20.9739   -0.5311 H         1 UNK         0.0767 
    102 H102       28.9252   20.8863    1.0470 H         1 UNK         0.0767 
    103 H103       27.1803   20.7414    0.9245 H         1 UNK         0.0767 
    104 H104       29.7527   22.8481   -0.3509 H         1 UNK         0.3013 
    105 H105       28.7079   28.5243    4.9223 H         1 UNK         0.3121 
    106 H106       29.1518   30.3618    6.0072 H         1 UNK         0.0774 
    107 H107       27.4661   31.9449    6.8157 H         1 UNK         0.0815 
    108 H108       26.2424   31.2824    5.7492 H         1 UNK         0.0815 
    109 H109       26.8917   30.3040    7.0648 H         1 UNK         0.0815 
    110 H110       27.0926   31.0449    3.1709 H         1 UNK         0.2987 
    111 H111       28.2153   33.5597    2.4639 H         1 UNK         0.0949 
    112 H112       27.1313   33.1148    0.2449 H         1 UNK         0.0806 
    113 H113       26.8332   31.4486    0.7203 H         1 UNK         0.0806 
    114 H114       26.0433   32.7689    1.5794 H         1 UNK         0.0806 
    115 H115       29.1894   30.2479    1.5607 H         1 UNK         0.3010 
    116 H116       31.3031   30.9422   -0.2037 H         1 UNK         0.0829 
    117 H117       30.3080   28.6888   -0.1224 H         1 UNK         0.0813 
    118 H118       32.0314   28.5706    0.2025 H         1 UNK         0.0813 
    119 H119       30.8758   28.4427    1.5224 H         1 UNK         0.0813 
    120 H120       31.1733   31.3301    3.1984 H         1 UNK         0.3038 
    121 H121       32.4751   32.0341    4.7769 H         1 UNK         0.0769 
    122 H122       34.3339   33.5758    4.2051 H         1 UNK         0.0811 
    123 H123       32.9320   33.8718    3.1890 H         1 UNK         0.0811 
    124 H124       34.3265   33.0094    2.5418 H         1 UNK         0.0811 
    125 H125       34.5235   30.2515    2.4878 H         1 UNK         0.3204 
    126 H126       36.5712   29.5688    4.4552 H         1 UNK         0.0748 
    127 H127       37.5494   28.3052    2.5417 H         1 UNK         0.0771 
    128 H128       36.0999   28.5954    1.5868 H         1 UNK         0.0771 
    129 H129       37.1311   29.9425    2.0663 H         1 UNK         0.0771 
    130 H130       34.5354   28.7891    5.8087 H         1 UNK         0.2980 
    131 H131       33.6136   26.1013    5.2360 H         1 UNK         0.0545 
    132 H132       36.5860   27.0292    6.6612 H         1 UNK         0.3459 
    133 H133       36.8525   25.5324    7.5207 H         1 UNK         0.3459 
    134 H134       33.1911   27.6903    7.8020 H         1 UNK         0.0616 
    135 H135       32.2841   26.3010    7.2755 H         1 UNK         0.0616 
    136 H136       30.7927   28.5261    3.9074 H         1 UNK         0.0634 
    137 H137       32.4645   28.0752    3.9172 H         1 UNK         0.0634 
@<TRIPOS>BOND
     1    1    2 1    
     2    1   72 1    
     3    1   73 1    
     4    1   74 1    
     5    2    3 2    
     6    2    4 am   BACKBONE|DICT|INTERRES
     7    4    5 1    
     8    4   75 1    
     9    5    6 1    
    10    5   35 1    
    11    5   76 1    
    12    6    7 1    
    13    6   77 1    
    14    6   78 1    
    15    7    8 1    
    16    8    9 1    
    17    8   79 1    
    18    8   80 1    
    19    9   10 ar   
    20    9   14 ar   
    21   10   11 ar   
    22   10   81 1    
    23   11   12 ar   
    24   11   71 1    
    25   12   13 ar   
    26   12   82 1    
    27   13   14 ar   
    28   13   15 1    
    29   14   83 1    
    30   15   16 1    
    31   15   84 1    
    32   15   85 1    
    33   16   17 1    
    34   17   18 1    
    35   17   86 1    
    36   17   87 1    
    37   18   19 1    
    38   18   37 1    
    39   18   88 1    
    40   19   20 am   BACKBONE|DICT|INTERRES
    41   19   89 1    
    42   20   21 2    
    43   20   22 1    
    44   22   23 1    
    45   22   24 1    
    46   22   90 1    
    47   23   91 1    
    48   23   92 1    
    49   23   93 1    
    50   24   25 am   BACKBONE|DICT|INTERRES
    51   24   94 1    
    52   25   26 2    
    53   25   27 1    
    54   27   28 1    
    55   27   29 1    
    56   27   95 1    
    57   28   96 1    
    58   28   97 1    
    59   28   98 1    
    60   29   30 am   BACKBONE|DICT|INTERRES
    61   29   99 1    
    62   30   31 2    
    63   30   32 1    
    64   32   33 1    
    65   32   34 1    
    66   32  100 1    
    67   33  101 1    
    68   33  102 1    
    69   33  103 1    
    70   34   35 am   BACKBONE|DICT|INTERRES
    71   34  104 1    
    72   35   36 2    
    73   37   38 2    
    74   37   39 am   BACKBONE|DICT|INTERRES
    75   39   40 1    
    76   39  105 1    
    77   40   41 1    
    78   40   42 1    
    79   40  106 1    
    80   41  107 1    
    81   41  108 1    
    82   41  109 1    
    83   42   43 2    
    84   42   44 am   BACKBONE|DICT|INTERRES
    85   44   45 1    
    86   44  110 1    
    87   45   46 1    
    88   45   47 1    
    89   45  111 1    
    90   46  112 1    
    91   46  113 1    
    92   46  114 1    
    93   47   48 2    
    94   47   49 am   BACKBONE|DICT|INTERRES
    95   49   50 1    
    96   49  115 1    
    97   50   51 1    
    98   50   52 1    
    99   50  116 1    
   100   51  117 1    
   101   51  118 1    
   102   51  119 1    
   103   52   53 2    
   104   52   54 am   BACKBONE|DICT|INTERRES
   105   54   55 1    
   106   54  120 1    
   107   55   56 1    
   108   55   57 1    
   109   55  121 1    
   110   56  122 1    
   111   56  123 1    
   112   56  124 1    
   113   57   58 2    
   114   57   59 am   BACKBONE|DICT|INTERRES
   115   59   60 1    
   116   59  125 1    
   117   60   61 1    
   118   60   62 1    
   119   60  126 1    
   120   61  127 1    
   121   61  128 1    
   122   61  129 1    
   123   62   63 2    
   124   62   64 am   BACKBONE|DICT|INTERRES
   125   64   65 1    
   126   64  130 1    
   127   65   66 1    
   128   65   69 1    
   129   65  131 1    
   130   66   67 am   BACKBONE|DICT|INTERRES
   131   66   68 2    
   132   67  132 1    
   133   67  133 1    
   134   69   70 1    
   135   69  134 1    
   136   69  135 1    
   137   70   71 1    
   138   71  136 1    
   139   71  137 1    
@<TRIPOS>SUBSTRUCTURE
     1 UNK         1 GROUP             0       ****    0 ROOT    
