@<TRIPOS>MOLECULE
3R136
137   139    1
SMALL
USER_CHARGES


@<TRIPOS>ATOM
      1 CA         26.1842   29.5842    4.9510 C.3       0 UNK        -0.1979 
      2 C          26.0157   28.1966    4.3533 C.2       0 UNK         0.4864 
      3 O          24.9794   27.5584    4.5490 O.2       0 UNK        -0.5359 
      4 N          27.0187   27.7303    3.6002 N.am      1 UNK        -0.4318 
      5 CA         27.0533   26.4253    2.9288 C.3       1 UNK         0.0824 
      6 C6         28.5052   25.9674    2.6448 C.3       12 UNK        -0.0944 
      7 S7         29.4554   25.5869    4.1551 S.3       12 UNK        -0.2672 
      8 C8         30.8770   26.7326    4.0381 C.3       12 UNK         0.0333 
      9 C9         31.9125   26.4408    2.9452 C.ar      12 UNK        -0.0807 
     10 C10        33.1248   27.1359    2.9886 C.ar      12 UNK        -0.0894 
     11 C11        34.1124   26.9280    2.0214 C.ar      12 UNK        -0.0804 
     12 C12        33.8688   26.0389    0.9711 C.ar      12 UNK        -0.0824 
     13 C13        32.6557   25.3493    0.8973 C.ar      12 UNK        -0.0762 
     14 C14        31.6981   25.5340    1.8985 C.ar      12 UNK        -0.0782 
     15 C15        32.3634   24.4099   -0.2662 C.3       12 UNK         0.0230 
     16 S16        32.2622   25.2694   -1.8755 S.3       12 UNK        -0.2608 
     17 C17        31.1013   26.6512   -1.5792 C.3       12 UNK        -0.0989 
     18 CA         29.7272   26.4642   -2.2720 C.3       5 UNK         0.0716 
     19 N          29.0181   25.2924   -1.7458 N.am      5 UNK        -0.4135 
     20 C          27.9187   24.7348   -2.2695 C.2       4 UNK         0.5031 
     21 O          27.3025   25.2020   -3.2280 O.2       4 UNK        -0.5229 
     22 CA         27.4339   23.4196   -1.6398 C.3       4 UNK         0.0329 
     23 CB         28.4225   22.7831   -0.6384 C.3       4 UNK        -0.2001 
     24 N          26.1555   23.6485   -0.9727 N.am      4 UNK        -0.4303 
     25 C          25.0705   22.8712   -1.0945 C.2       3 UNK         0.5044 
     26 O          25.0231   21.8787   -1.8233 O.2       3 UNK        -0.5152 
     27 CA         23.8289   23.2202   -0.2472 C.3       3 UNK         0.0319 
     28 CB         23.5902   22.1422    0.8241 C.3       3 UNK        -0.2001 
     29 N          23.9102   24.5239    0.4144 N.am      3 UNK        -0.4354 
     30 C          23.7153   25.7040   -0.1884 C.2       2 UNK         0.4964 
     31 O          23.3778   25.8237   -1.3660 O.2       2 UNK        -0.5047 
     32 CA         23.9559   26.9675    0.6585 C.3       2 UNK         0.0288 
     33 CB         22.6292   27.4933    1.2289 C.3       2 UNK        -0.2113 
     34 N          24.9170   26.8028    1.7582 N.am      2 UNK        -0.4145 
     35 C          26.1997   26.4316    1.6397 C.2       1 UNK         0.5006 
     36 O          26.7094   26.1127    0.5618 O.2       1 UNK        -0.5103 
     37 C          28.9288   27.7851   -2.1924 C.2       5 UNK         0.5055 
     38 O          29.2740   28.7216   -2.9142 O.2       5 UNK        -0.5220 
     39 N          27.9298   27.8655   -1.2980 N.am      6 UNK        -0.4450 
     40 CA         27.1575   29.0644   -0.9351 C.3       6 UNK         0.0367 
     41 CB         26.3420   29.6002   -2.1305 C.3       6 UNK        -0.1929 
     42 C          27.9988   30.1530   -0.2368 C.2       6 UNK         0.5070 
     43 O          27.5977   31.3174   -0.2115 O.2       6 UNK        -0.5237 
     44 N          29.1395   29.7523    0.3379 N.am      7 UNK        -0.4739 
     45 CA         30.0222   30.5967    1.1372 C.3       7 UNK         0.0276 
     46 CB         31.4453   30.0169    1.0734 C.3       7 UNK        -0.1927 
     47 C          29.5326   30.6455    2.5908 C.2       7 UNK         0.5013 
     48 O          29.0050   29.6476    3.0862 O.2       7 UNK        -0.5193 
     49 N          29.7528   31.7853    3.2550 N.am      8 UNK        -0.4253 
     50 CA         29.4573   31.9880    4.6785 C.3       8 UNK         0.0242 
     51 CB         28.8639   33.3956    4.8634 C.3       8 UNK        -0.2000 
     52 C          30.6958   31.7977    5.5766 C.2       8 UNK         0.4948 
     53 O          30.5652   31.8710    6.7996 O.2       8 UNK        -0.5275 
     54 N          31.8726   31.5913    4.9693 N.am      9 UNK        -0.4246 
     55 CA         33.1544   31.3971    5.6477 C.3       9 UNK         0.0261 
     56 CB         34.2822   31.5328    4.6098 C.3       9 UNK        -0.1959 
     57 C          33.2447   30.0318    6.3492 C.2       9 UNK         0.5033 
     58 O          32.6020   29.0730    5.9177 O.2       9 UNK        -0.5390 
     59 N          34.0944   29.9572    7.3821 N.am      10 UNK        -0.4215 
     60 CA         34.4213   28.7179    8.0975 C.3       10 UNK         0.0240 
     61 CB         35.0642   29.0694    9.4497 C.3       10 UNK        -0.1982 
     62 C          35.3376   27.7719    7.2962 C.2       10 UNK         0.4970 
     63 O          35.3541   26.5742    7.5809 O.2       10 UNK        -0.4916 
     64 N          36.0793   28.3225    6.3236 N.am      11 UNK        -0.4279 
     65 CA         37.0108   27.6173    5.4259 C.3       11 UNK         0.1003 
     66 C          38.3197   27.1027    6.1014 C.2       11 UNK         0.5709 
     67 N          38.6502   27.5326    7.3137 N.am      11 UNK        -0.7358 
     68 O          39.0681   26.3282    5.5098 O.2       11 UNK        -0.4999 
     69 C69        36.2955   26.5407    4.5522 C.3       12 UNK        -0.0954 
     70 S70        36.7661   26.6348    2.7916 S.3       12 UNK        -0.2268 
     71 C71        35.4365   27.6742    2.1035 C.3       12 UNK         0.0203 
     72 H72        26.5286   30.2905    4.1958 H         1 UNK         0.0888 
     73 H73        25.2386   29.9515    5.3493 H         1 UNK         0.0888 
     74 H74        26.9110   29.5600    5.7623 H         1 UNK         0.0888 
     75 H75        27.8272   28.3325    3.4411 H         1 UNK         0.3017 
     76 H76        26.5985   25.6854    3.5910 H         1 UNK         0.0873 
     77 H77        28.5008   25.0505    2.0533 H         1 UNK         0.0745 
     78 H78        29.0296   26.7184    2.0505 H         1 UNK         0.0745 
     79 H79        30.5070   27.7492    3.9132 H         1 UNK         0.0705 
     80 H80        31.3837   26.7161    5.0043 H         1 UNK         0.0705 
     81 H81        33.3049   27.8398    3.7890 H         1 UNK         0.1334 
     82 H82        34.6194   25.8884    0.2070 H         1 UNK         0.1417 
     83 H83        30.7826   24.9691    1.8404 H         1 UNK         0.1562 
     84 H84        31.4355   23.8616   -0.1007 H         1 UNK         0.0748 
     85 H85        33.1513   23.6575   -0.3209 H         1 UNK         0.0748 
     86 H86        31.5966   27.5487   -1.9565 H         1 UNK         0.0940 
     87 H87        30.9684   26.8236   -0.5112 H         1 UNK         0.0940 
     88 H88        29.9060   26.2786   -3.3333 H         1 UNK         0.0703 
     89 H89        29.4540   24.8285   -0.9648 H         1 UNK         0.3081 
     90 H90        27.3066   22.7232   -2.4713 H         1 UNK         0.0719 
     91 H91        28.5722   23.4032    0.2457 H         1 UNK         0.0809 
     92 H92        28.0540   21.8159   -0.2959 H         1 UNK         0.0809 
     93 H93        29.3947   22.6027   -1.0994 H         1 UNK         0.0809 
     94 H94        26.1054   24.4841   -0.3983 H         1 UNK         0.2990 
     95 H95        22.9693   23.2255   -0.9209 H         1 UNK         0.0690 
     96 H96        22.6806   22.3405    1.3917 H         1 UNK         0.0788 
     97 H97        24.4209   22.0817    1.5284 H         1 UNK         0.0788 
     98 H98        23.4763   21.1568    0.3700 H         1 UNK         0.0788 
     99 H99        24.1729   24.5234    1.3892 H         1 UNK         0.2993 
    100 H100       24.3559   27.7246   -0.0176 H         1 UNK         0.0949 
    101 H101       21.8973   27.6536    0.4357 H         1 UNK         0.0767 
    102 H102       22.1913   26.7928    1.9412 H         1 UNK         0.0767 
    103 H103       22.7667   28.4476    1.7379 H         1 UNK         0.0767 
    104 H104       24.5994   27.0541    2.6909 H         1 UNK         0.3013 
    105 H105       27.6926   27.0355   -0.7591 H         1 UNK         0.3121 
    106 H106       26.4412   28.7423   -0.1815 H         1 UNK         0.0774 
    107 H107       25.6478   30.3786   -1.8120 H         1 UNK         0.0815 
    108 H108       26.9821   30.0341   -2.8987 H         1 UNK         0.0815 
    109 H109       25.7505   28.8092   -2.5916 H         1 UNK         0.0815 
    110 H110       29.3608   28.7695    0.3142 H         1 UNK         0.2987 
    111 H111       30.0305   31.6071    0.7218 H         1 UNK         0.0949 
    112 H112       31.4876   29.0071    1.4830 H         1 UNK         0.0806 
    113 H113       31.8100   29.9740    0.0468 H         1 UNK         0.0806 
    114 H114       32.1487   30.6282    1.6396 H         1 UNK         0.0806 
    115 H115       30.1748   32.5641    2.7681 H         1 UNK         0.3010 
    116 H116       28.7126   31.2632    5.0122 H         1 UNK         0.0829 
    117 H117       27.9598   33.5251    4.2680 H         1 UNK         0.0813 
    118 H118       28.5905   33.5725    5.9046 H         1 UNK         0.0813 
    119 H119       29.5710   34.1745    4.5754 H         1 UNK         0.0813 
    120 H120       31.8770   31.4997    3.9660 H         1 UNK         0.3038 
    121 H121       33.2650   32.1848    6.3964 H         1 UNK         0.0769 
    122 H122       34.2460   32.5000    4.1078 H         1 UNK         0.0811 
    123 H123       34.2235   30.7561    3.8457 H         1 UNK         0.0811 
    124 H124       35.2635   31.4546    5.0791 H         1 UNK         0.0811 
    125 H125       34.5745   30.7946    7.6813 H         1 UNK         0.3204 
    126 H126       33.4910   28.1796    8.2929 H         1 UNK         0.0748 
    127 H127       34.3929   29.6707   10.0632 H         1 UNK         0.0771 
    128 H128       35.2965   28.1674   10.0180 H         1 UNK         0.0771 
    129 H129       35.9947   29.6249    9.3255 H         1 UNK         0.0771 
    130 H130       36.0195   29.3198    6.1882 H         1 UNK         0.2980 
    131 H131       37.3586   28.4090    4.7617 H         1 UNK         0.0545 
    132 H132       39.5036   27.2032    7.7369 H         1 UNK         0.3459 
    133 H133       38.0554   28.1755    7.8100 H         1 UNK         0.3459 
    134 H134       35.2138   26.6387    4.6240 H         1 UNK         0.0616 
    135 H135       36.5030   25.5322    4.9144 H         1 UNK         0.0616 
    136 H136       35.3357   28.5786    2.7056 H         1 UNK         0.0634 
    137 H137       35.7292   28.0033    1.1054 H         1 UNK         0.0634 
@<TRIPOS>BOND
     1    1    2 1    
     2    1   72 1    
     3    1   73 1    
     4    1   74 1    
     5    2    3 2    
     6    2    4 am   BACKBONE|DICT|INTERRES
     7    4    5 1    
     8    4   75 1    
     9    5    6 1    
    10    5   35 1    
    11    5   76 1    
    12    6    7 1    
    13    6   77 1    
    14    6   78 1    
    15    7    8 1    
    16    8    9 1    
    17    8   79 1    
    18    8   80 1    
    19    9   10 ar   
    20    9   14 ar   
    21   10   11 ar   
    22   10   81 1    
    23   11   12 ar   
    24   11   71 1    
    25   12   13 ar   
    26   12   82 1    
    27   13   14 ar   
    28   13   15 1    
    29   14   83 1    
    30   15   16 1    
    31   15   84 1    
    32   15   85 1    
    33   16   17 1    
    34   17   18 1    
    35   17   86 1    
    36   17   87 1    
    37   18   19 1    
    38   18   37 1    
    39   18   88 1    
    40   19   20 am   BACKBONE|DICT|INTERRES
    41   19   89 1    
    42   20   21 2    
    43   20   22 1    
    44   22   23 1    
    45   22   24 1    
    46   22   90 1    
    47   23   91 1    
    48   23   92 1    
    49   23   93 1    
    50   24   25 am   BACKBONE|DICT|INTERRES
    51   24   94 1    
    52   25   26 2    
    53   25   27 1    
    54   27   28 1    
    55   27   29 1    
    56   27   95 1    
    57   28   96 1    
    58   28   97 1    
    59   28   98 1    
    60   29   30 am   BACKBONE|DICT|INTERRES
    61   29   99 1    
    62   30   31 2    
    63   30   32 1    
    64   32   33 1    
    65   32   34 1    
    66   32  100 1    
    67   33  101 1    
    68   33  102 1    
    69   33  103 1    
    70   34   35 am   BACKBONE|DICT|INTERRES
    71   34  104 1    
    72   35   36 2    
    73   37   38 2    
    74   37   39 am   BACKBONE|DICT|INTERRES
    75   39   40 1    
    76   39  105 1    
    77   40   41 1    
    78   40   42 1    
    79   40  106 1    
    80   41  107 1    
    81   41  108 1    
    82   41  109 1    
    83   42   43 2    
    84   42   44 am   BACKBONE|DICT|INTERRES
    85   44   45 1    
    86   44  110 1    
    87   45   46 1    
    88   45   47 1    
    89   45  111 1    
    90   46  112 1    
    91   46  113 1    
    92   46  114 1    
    93   47   48 2    
    94   47   49 am   BACKBONE|DICT|INTERRES
    95   49   50 1    
    96   49  115 1    
    97   50   51 1    
    98   50   52 1    
    99   50  116 1    
   100   51  117 1    
   101   51  118 1    
   102   51  119 1    
   103   52   53 2    
   104   52   54 am   BACKBONE|DICT|INTERRES
   105   54   55 1    
   106   54  120 1    
   107   55   56 1    
   108   55   57 1    
   109   55  121 1    
   110   56  122 1    
   111   56  123 1    
   112   56  124 1    
   113   57   58 2    
   114   57   59 am   BACKBONE|DICT|INTERRES
   115   59   60 1    
   116   59  125 1    
   117   60   61 1    
   118   60   62 1    
   119   60  126 1    
   120   61  127 1    
   121   61  128 1    
   122   61  129 1    
   123   62   63 2    
   124   62   64 am   BACKBONE|DICT|INTERRES
   125   64   65 1    
   126   64  130 1    
   127   65   66 1    
   128   65   69 1    
   129   65  131 1    
   130   66   67 am   BACKBONE|DICT|INTERRES
   131   66   68 2    
   132   67  132 1    
   133   67  133 1    
   134   69   70 1    
   135   69  134 1    
   136   69  135 1    
   137   70   71 1    
   138   71  136 1    
   139   71  137 1    
@<TRIPOS>SUBSTRUCTURE
     1 UNK         1 GROUP             0       ****    0 ROOT    
