@<TRIPOS>MOLECULE
3R136
137   139    1
SMALL
USER_CHARGES


@<TRIPOS>ATOM
      1 CA         33.2803   23.6505   -4.6792 C.3       0 UNK        -0.1979 
      2 C          32.4555   24.4692   -3.6968 C.2       0 UNK         0.4864 
      3 O          32.2852   25.6719   -3.8984 O.2       0 UNK        -0.5359 
      4 N          31.9506   23.8267   -2.6340 N.am      1 UNK        -0.4318 
      5 CA         31.1172   24.4407   -1.5939 C.3       1 UNK         0.0824 
      6 C6         30.9695   23.4938   -0.3732 C.3       12 UNK        -0.0944 
      7 S7         30.0991   24.2528    1.0392 S.3       12 UNK        -0.2672 
      8 C8         30.8273   23.3449    2.4452 C.3       12 UNK         0.0333 
      9 C9         30.2759   23.8682    3.7625 C.ar      12 UNK        -0.0807 
     10 C10        31.1009   24.5520    4.6602 C.ar      12 UNK        -0.0894 
     11 C11        30.5830   25.0540    5.8585 C.ar      12 UNK        -0.0804 
     12 C12        29.2305   24.8704    6.1576 C.ar      12 UNK        -0.0824 
     13 C13        28.3989   24.1843    5.2682 C.ar      12 UNK        -0.0762 
     14 C14        28.9287   23.6758    4.0795 C.ar      12 UNK        -0.0782 
     15 C15        26.9212   24.0078    5.5725 C.3       12 UNK         0.0230 
     16 S16        25.9033   25.0691    4.5025 S.3       12 UNK        -0.2608 
     17 C17        26.3311   26.7370    5.1105 C.3       12 UNK        -0.0989 
     18 CA         27.3739   27.4815    4.2314 C.3       5 UNK         0.0716 
     19 N          26.9702   27.5127    2.8213 N.am      5 UNK        -0.4135 
     20 C          27.5608   28.1406    1.7935 C.2       4 UNK         0.5031 
     21 O          28.5598   28.8625    1.8878 O.2       4 UNK        -0.5229 
     22 CA         26.9184   27.8989    0.4146 C.3       4 UNK         0.0329 
     23 CB         27.6282   28.6676   -0.7105 C.3       4 UNK        -0.2001 
     24 N          26.9056   26.4721    0.0788 N.am      4 UNK        -0.4303 
     25 C          25.9724   25.5997    0.4890 C.2       3 UNK         0.5044 
     26 O          25.0174   25.9322    1.1935 O.2       3 UNK        -0.5152 
     27 CA         26.1403   24.1184    0.0860 C.3       3 UNK         0.0319 
     28 CB         24.7954   23.3640    0.0167 C.3       3 UNK        -0.2001 
     29 N          26.9194   23.9175   -1.1415 N.am      3 UNK        -0.4354 
     30 C          26.6405   24.3637   -2.3778 C.2       2 UNK         0.4964 
     31 O          25.5956   24.9435   -2.6775 O.2       2 UNK        -0.5047 
     32 CA         27.7276   24.1382   -3.4561 C.3       2 UNK         0.0288 
     33 CB         27.6998   25.2241   -4.5535 C.3       2 UNK        -0.2113 
     34 N          29.0897   23.9970   -2.9125 N.am      2 UNK        -0.4145 
     35 C          29.7423   24.8825   -2.1394 C.2       1 UNK         0.5006 
     36 O          29.2833   25.9781   -1.8131 O.2       1 UNK        -0.5103 
     37 C          27.6089   28.9012    4.7800 C.2       5 UNK         0.5055 
     38 O          26.6362   29.6265    4.9976 O.2       5 UNK        -0.5220 
     39 N          28.8834   29.2948    4.9193 N.am      6 UNK        -0.4450 
     40 CA         29.3950   30.6205    5.3077 C.3       6 UNK         0.0367 
     41 CB         28.9494   30.9869    6.7378 C.3       6 UNK        -0.1929 
     42 C          29.0964   31.7707    4.3164 C.2       6 UNK         0.5070 
     43 O          29.7525   32.8127    4.3961 O.2       6 UNK        -0.5237 
     44 N          28.1288   31.5843    3.4078 N.am      7 UNK        -0.4739 
     45 CA         27.7289   32.5328    2.3682 C.3       7 UNK         0.0276 
     46 CB         26.3779   32.0966    1.7793 C.3       7 UNK        -0.1927 
     47 C          28.7817   32.6766    1.2592 C.2       7 UNK         0.5013 
     48 O          28.9843   33.7870    0.7651 O.2       7 UNK        -0.5193 
     49 N          29.4370   31.5644    0.9034 N.am      8 UNK        -0.4253 
     50 CA         30.5693   31.5370   -0.0267 C.3       8 UNK         0.0242 
     51 CB         30.0941   31.2892   -1.4688 C.3       8 UNK        -0.2000 
     52 C          31.6498   30.5313    0.3944 C.2       8 UNK         0.4948 
     53 O          32.8039   30.7171    0.0041 O.2       8 UNK        -0.5275 
     54 N          31.2986   29.5086    1.1910 N.am      9 UNK        -0.4246 
     55 CA         32.2627   28.6177    1.8393 C.3       9 UNK         0.0261 
     56 CB         31.5106   27.4331    2.4633 C.3       9 UNK        -0.1959 
     57 C          33.0636   29.3782    2.9109 C.2       9 UNK         0.5033 
     58 O          32.4799   30.1779    3.6460 O.2       9 UNK        -0.5390 
     59 N          34.3773   29.1230    2.9764 N.am      10 UNK        -0.4215 
     60 CA         35.3002   29.7983    3.8960 C.3       10 UNK         0.0240 
     61 CB         36.7514   29.4901    3.4902 C.3       10 UNK        -0.1982 
     62 C          35.0598   29.4374    5.3716 C.2       10 UNK         0.4970 
     63 O          35.1156   30.3245    6.2250 O.2       10 UNK        -0.4916 
     64 N          34.7900   28.1497    5.6268 N.am      11 UNK        -0.4279 
     65 CA         34.5071   27.5619    6.9464 C.3       11 UNK         0.1003 
     66 C          35.6702   27.7396    7.9711 C.2       11 UNK         0.5709 
     67 N          35.4043   27.6699    9.2730 N.am      11 UNK        -0.7358 
     68 O          36.8360   27.8771    7.5942 O.2       11 UNK        -0.4999 
     69 C69        33.0997   27.9625    7.4833 C.3       12 UNK        -0.0954 
     70 S70        31.7610   27.5057    6.3319 S.3       12 UNK        -0.2268 
     71 C71        31.4918   25.7803    6.8345 C.3       12 UNK         0.0203 
     72 H72        34.2891   24.0558   -4.7498 H         1 UNK         0.0888 
     73 H73        33.3554   22.6059   -4.3789 H         1 UNK         0.0888 
     74 H74        32.8288   23.6867   -5.6700 H         1 UNK         0.0888 
     75 H75        32.1430   22.8412   -2.5208 H         1 UNK         0.3017 
     76 H76        31.6324   25.3435   -1.2572 H         1 UNK         0.0873 
     77 H77        30.4477   22.5752   -0.6482 H         1 UNK         0.0745 
     78 H78        31.9612   23.1868   -0.0365 H         1 UNK         0.0745 
     79 H79        31.9192   23.4410    2.4169 H         1 UNK         0.0705 
     80 H80        30.5990   22.2770    2.3519 H         1 UNK         0.0705 
     81 H81        32.1462   24.7015    4.4271 H         1 UNK         0.1334 
     82 H82        28.8253   25.2649    7.0795 H         1 UNK         0.1417 
     83 H83        28.2836   23.1560    3.3841 H         1 UNK         0.1562 
     84 H84        26.7037   24.2237    6.6197 H         1 UNK         0.0748 
     85 H85        26.6403   22.9661    5.4093 H         1 UNK         0.0748 
     86 H86        26.6834   26.6653    6.1413 H         1 UNK         0.0940 
     87 H87        25.3981   27.3026    5.1565 H         1 UNK         0.0940 
     88 H88        28.3159   26.9319    4.2754 H         1 UNK         0.0703 
     89 H89        26.1609   26.9420    2.5989 H         1 UNK         0.3081 
     90 H90        25.8913   28.2673    0.4638 H         1 UNK         0.0719 
     91 H91        28.6774   28.3804   -0.7847 H         1 UNK         0.0809 
     92 H92        27.1613   28.4787   -1.6772 H         1 UNK         0.0809 
     93 H93        27.5873   29.7431   -0.5348 H         1 UNK         0.0809 
     94 H94        27.6822   26.1392   -0.4842 H         1 UNK         0.2990 
     95 H95        26.7268   23.6656    0.8870 H         1 UNK         0.0690 
     96 H96        24.9409   22.3164   -0.2467 H         1 UNK         0.0788 
     97 H97        24.1208   23.8052   -0.7175 H         1 UNK         0.0788 
     98 H98        24.2843   23.3851    0.9802 H         1 UNK         0.0788 
     99 H99        27.8094   23.4580   -1.0102 H         1 UNK         0.2993 
    100 H100       27.4842   23.1849   -3.9279 H         1 UNK         0.0949 
    101 H101       27.8671   26.2197   -4.1405 H         1 UNK         0.0767 
    102 H102       28.4639   25.0428   -5.3097 H         1 UNK         0.0767 
    103 H103       26.7370   25.2419   -5.0657 H         1 UNK         0.0767 
    104 H104       29.5538   23.1235   -3.1208 H         1 UNK         0.3013 
    105 H105       29.6055   28.6330    4.6680 H         1 UNK         0.3121 
    106 H106       30.4806   30.5165    5.3262 H         1 UNK         0.0774 
    107 H107       29.4281   31.9092    7.0688 H         1 UNK         0.0815 
    108 H108       27.8720   31.1418    6.8037 H         1 UNK         0.0815 
    109 H109       29.2234   30.2075    7.4495 H         1 UNK         0.0815 
    110 H110       27.6066   30.7164    3.4629 H         1 UNK         0.2987 
    111 H111       27.6024   33.5124    2.8345 H         1 UNK         0.0949 
    112 H112       26.0424   32.7969    1.0130 H         1 UNK         0.0806 
    113 H113       26.4358   31.1105    1.3175 H         1 UNK         0.0806 
    114 H114       25.6043   32.0616    2.5469 H         1 UNK         0.0806 
    115 H115       29.1833   30.6961    1.3630 H         1 UNK         0.3010 
    116 H116       31.0562   32.5146   -0.0022 H         1 UNK         0.0829 
    117 H117       29.3097   31.9883   -1.7583 H         1 UNK         0.0813 
    118 H118       30.9180   31.4185   -2.1715 H         1 UNK         0.0813 
    119 H119       29.7164   30.2785   -1.6066 H         1 UNK         0.0813 
    120 H120       30.3286   29.3704    1.4561 H         1 UNK         0.3038 
    121 H121       32.9442   28.2367    1.0749 H         1 UNK         0.0769 
    122 H122       30.8657   27.7490    3.2855 H         1 UNK         0.0811 
    123 H123       32.2080   26.6918    2.8570 H         1 UNK         0.0811 
    124 H124       30.8810   26.9341    1.7243 H         1 UNK         0.0811 
    125 H125       34.7801   28.4585    2.3312 H         1 UNK         0.3204 
    126 H126       35.1430   30.8745    3.7935 H         1 UNK         0.0748 
    127 H127       37.4566   29.9933    4.1538 H         1 UNK         0.0771 
    128 H128       36.9691   28.4221    3.5351 H         1 UNK         0.0771 
    129 H129       36.9616   29.8336    2.4769 H         1 UNK         0.0771 
    130 H130       34.7854   27.5031    4.8534 H         1 UNK         0.2980 
    131 H131       34.4888   26.4873    6.7695 H         1 UNK         0.0545 
    132 H132       34.4629   27.5339    9.6134 H         1 UNK         0.3459 
    133 H133       36.1630   27.7595    9.9289 H         1 UNK         0.3459 
    134 H134       33.0514   29.0380    7.6576 H         1 UNK         0.0616 
    135 H135       32.8875   27.4877    8.4417 H         1 UNK         0.0616 
    136 H136       31.0710   25.7613    7.8409 H         1 UNK         0.0634 
    137 H137       32.4472   25.2578    6.8895 H         1 UNK         0.0634 
@<TRIPOS>BOND
     1    1    2 1    
     2    1   72 1    
     3    1   73 1    
     4    1   74 1    
     5    2    3 2    
     6    2    4 am   BACKBONE|DICT|INTERRES
     7    4    5 1    
     8    4   75 1    
     9    5    6 1    
    10    5   35 1    
    11    5   76 1    
    12    6    7 1    
    13    6   77 1    
    14    6   78 1    
    15    7    8 1    
    16    8    9 1    
    17    8   79 1    
    18    8   80 1    
    19    9   10 ar   
    20    9   14 ar   
    21   10   11 ar   
    22   10   81 1    
    23   11   12 ar   
    24   11   71 1    
    25   12   13 ar   
    26   12   82 1    
    27   13   14 ar   
    28   13   15 1    
    29   14   83 1    
    30   15   16 1    
    31   15   84 1    
    32   15   85 1    
    33   16   17 1    
    34   17   18 1    
    35   17   86 1    
    36   17   87 1    
    37   18   19 1    
    38   18   37 1    
    39   18   88 1    
    40   19   20 am   BACKBONE|DICT|INTERRES
    41   19   89 1    
    42   20   21 2    
    43   20   22 1    
    44   22   23 1    
    45   22   24 1    
    46   22   90 1    
    47   23   91 1    
    48   23   92 1    
    49   23   93 1    
    50   24   25 am   BACKBONE|DICT|INTERRES
    51   24   94 1    
    52   25   26 2    
    53   25   27 1    
    54   27   28 1    
    55   27   29 1    
    56   27   95 1    
    57   28   96 1    
    58   28   97 1    
    59   28   98 1    
    60   29   30 am   BACKBONE|DICT|INTERRES
    61   29   99 1    
    62   30   31 2    
    63   30   32 1    
    64   32   33 1    
    65   32   34 1    
    66   32  100 1    
    67   33  101 1    
    68   33  102 1    
    69   33  103 1    
    70   34   35 am   BACKBONE|DICT|INTERRES
    71   34  104 1    
    72   35   36 2    
    73   37   38 2    
    74   37   39 am   BACKBONE|DICT|INTERRES
    75   39   40 1    
    76   39  105 1    
    77   40   41 1    
    78   40   42 1    
    79   40  106 1    
    80   41  107 1    
    81   41  108 1    
    82   41  109 1    
    83   42   43 2    
    84   42   44 am   BACKBONE|DICT|INTERRES
    85   44   45 1    
    86   44  110 1    
    87   45   46 1    
    88   45   47 1    
    89   45  111 1    
    90   46  112 1    
    91   46  113 1    
    92   46  114 1    
    93   47   48 2    
    94   47   49 am   BACKBONE|DICT|INTERRES
    95   49   50 1    
    96   49  115 1    
    97   50   51 1    
    98   50   52 1    
    99   50  116 1    
   100   51  117 1    
   101   51  118 1    
   102   51  119 1    
   103   52   53 2    
   104   52   54 am   BACKBONE|DICT|INTERRES
   105   54   55 1    
   106   54  120 1    
   107   55   56 1    
   108   55   57 1    
   109   55  121 1    
   110   56  122 1    
   111   56  123 1    
   112   56  124 1    
   113   57   58 2    
   114   57   59 am   BACKBONE|DICT|INTERRES
   115   59   60 1    
   116   59  125 1    
   117   60   61 1    
   118   60   62 1    
   119   60  126 1    
   120   61  127 1    
   121   61  128 1    
   122   61  129 1    
   123   62   63 2    
   124   62   64 am   BACKBONE|DICT|INTERRES
   125   64   65 1    
   126   64  130 1    
   127   65   66 1    
   128   65   69 1    
   129   65  131 1    
   130   66   67 am   BACKBONE|DICT|INTERRES
   131   66   68 2    
   132   67  132 1    
   133   67  133 1    
   134   69   70 1    
   135   69  134 1    
   136   69  135 1    
   137   70   71 1    
   138   71  136 1    
   139   71  137 1    
@<TRIPOS>SUBSTRUCTURE
     1 UNK         1 GROUP             0       ****    0 ROOT    
