@<TRIPOS>MOLECULE
3R136
137   139    1
SMALL
USER_CHARGES


@<TRIPOS>ATOM
      1 CA         28.3586   21.4779    1.2182 C.3       0 UNK        -0.1979 
      2 C          28.7501   22.6114    0.2814 C.2       0 UNK         0.4864 
      3 O          28.6869   23.7742    0.6824 O.2       0 UNK        -0.5359 
      4 N          29.1279   22.2580   -0.9579 N.am      1 UNK        -0.4318 
      5 CA         29.4628   23.1178   -2.1071 C.3       1 UNK         0.0824 
      6 C6         30.9191   23.6822   -2.0992 C.3       12 UNK        -0.0944 
      7 S7         31.3674   24.7782   -0.7058 S.3       12 UNK        -0.2672 
      8 C8         32.5801   23.7424    0.1789 C.3       12 UNK         0.0333 
      9 C9         32.5598   24.0008    1.6777 C.ar      12 UNK        -0.0807 
     10 C10        33.3387   25.0151    2.2406 C.ar      12 UNK        -0.0894 
     11 C11        33.3204   25.2548    3.6194 C.ar      12 UNK        -0.0804 
     12 C12        32.5142   24.4490    4.4371 C.ar      12 UNK        -0.0824 
     13 C13        31.7411   23.4228    3.8873 C.ar      12 UNK        -0.0762 
     14 C14        31.7703   23.2044    2.5087 C.ar      12 UNK        -0.0782 
     15 C15        30.8817   22.5385    4.7791 C.3       12 UNK         0.0230 
     16 S16        29.1046   22.8347    4.5219 S.3       12 UNK        -0.2608 
     17 C17        28.8962   24.5119    5.2105 C.3       12 UNK        -0.0989 
     18 CA         28.8859   25.6405    4.1375 C.3       5 UNK         0.0716 
     19 N          27.9526   25.3846    3.0275 N.am      5 UNK        -0.4135 
     20 C          26.6158   25.3022    3.0942 C.2       4 UNK         0.5031 
     21 O          25.9650   25.4659    4.1283 O.2       4 UNK        -0.5229 
     22 CA         25.8930   25.0119    1.7615 C.3       4 UNK         0.0329 
     23 CB         24.3573   25.1381    1.8630 C.3       4 UNK        -0.2001 
     24 N          26.4150   25.8160    0.6448 N.am      4 UNK        -0.4303 
     25 C          26.4134   27.1588    0.5617 C.2       3 UNK         0.5044 
     26 O          25.9540   27.8889    1.4381 O.2       3 UNK        -0.5152 
     27 CA         27.0323   27.8267   -0.6778 C.3       3 UNK         0.0319 
     28 CB         28.4029   28.4352   -0.3261 C.3       3 UNK        -0.2001 
     29 N          27.1629   26.9070   -1.8054 N.am      3 UNK        -0.4354 
     30 C          27.5152   27.2170   -3.0559 C.2       2 UNK         0.4964 
     31 O          27.6952   28.3692   -3.4544 O.2       2 UNK        -0.5047 
     32 CA         27.7255   26.0206   -4.0080 C.3       2 UNK         0.0288 
     33 CB         28.2333   26.4493   -5.3982 C.3       2 UNK        -0.2113 
     34 N          28.6481   25.0185   -3.4558 N.am      2 UNK        -0.4145 
     35 C          28.3581   24.1360   -2.4878 C.2       1 UNK         0.5006 
     36 O          27.2477   24.0939   -1.9462 O.2       1 UNK        -0.5103 
     37 C          28.7202   27.0339    4.7999 C.2       5 UNK         0.5055 
     38 O          29.2119   27.2303    5.9130 O.2       5 UNK        -0.5220 
     39 N          28.0275   27.9721    4.1381 N.am      6 UNK        -0.4450 
     40 CA         27.7477   29.3186    4.6444 C.3       6 UNK         0.0367 
     41 CB         26.5057   29.8635    3.9147 C.3       6 UNK        -0.1929 
     42 C          28.9471   30.2716    4.4883 C.2       6 UNK         0.5070 
     43 O          30.0127   29.8742    4.0106 O.2       6 UNK        -0.5237 
     44 N          28.7323   31.5491    4.8368 N.am      7 UNK        -0.4739 
     45 CA         29.7018   32.6440    4.6920 C.3       7 UNK         0.0276 
     46 CB         29.0880   33.9462    5.2287 C.3       7 UNK        -0.1927 
     47 C          30.2092   32.8399    3.2519 C.2       7 UNK         0.5013 
     48 O          31.3695   33.2036    3.0668 O.2       7 UNK        -0.5193 
     49 N          29.3632   32.5189    2.2620 N.am      8 UNK        -0.4253 
     50 CA         29.7092   32.4603    0.8384 C.3       8 UNK         0.0242 
     51 CB         28.4269   32.2446    0.0176 C.3       8 UNK        -0.2000 
     52 C          30.7652   31.3898    0.4918 C.2       8 UNK         0.4948 
     53 O          31.4574   31.5429   -0.5147 O.2       8 UNK        -0.5275 
     54 N          30.8935   30.3489    1.3288 N.am      9 UNK        -0.4246 
     55 CA         31.9356   29.3237    1.2341 C.3       9 UNK         0.0261 
     56 CB         31.3952   28.0039    1.8193 C.3       9 UNK        -0.1959 
     57 C          33.2173   29.7280    1.9876 C.2       9 UNK         0.5033 
     58 O          34.2202   29.0258    1.8615 O.2       9 UNK        -0.5390 
     59 N          33.1520   30.8115    2.7788 N.am      10 UNK        -0.4215 
     60 CA         34.1243   31.2567    3.7826 C.3       10 UNK         0.0240 
     61 CB         35.5072   31.5499    3.1601 C.3       10 UNK        -0.1982 
     62 C          34.1849   30.3222    5.0092 C.2       10 UNK         0.4970 
     63 O          35.2557   30.1656    5.5986 O.2       10 UNK        -0.4916 
     64 N          33.0349   29.7489    5.3896 N.am      11 UNK        -0.4279 
     65 CA         32.8398   28.9473    6.6077 C.3       11 UNK         0.1003 
     66 C          31.6929   29.5289    7.4810 C.2       11 UNK         0.5709 
     67 N          31.4479   28.9536    8.6511 N.am      11 UNK        -0.7358 
     68 O          31.0473   30.5177    7.1406 O.2       11 UNK        -0.4999 
     69 C69        32.6391   27.4423    6.2725 C.3       12 UNK        -0.0954 
     70 S70        34.2289   26.6028    5.9681 S.3       12 UNK        -0.2268 
     71 C71        34.1902   26.3936    4.1576 C.3       12 UNK         0.0203 
     72 H72        28.0646   20.5838    0.6690 H         1 UNK         0.0888 
     73 H73        29.1884   21.2188    1.8733 H         1 UNK         0.0888 
     74 H74        27.5172   21.7785    1.8419 H         1 UNK         0.0888 
     75 H75        29.1226   21.2723   -1.1785 H         1 UNK         0.3017 
     76 H76        29.4354   22.4214   -2.9468 H         1 UNK         0.0873 
     77 H77        31.6121   22.8405   -2.1214 H         1 UNK         0.0745 
     78 H78        31.1354   24.2201   -3.0228 H         1 UNK         0.0745 
     79 H79        32.3723   22.6866   -0.0004 H         1 UNK         0.0705 
     80 H80        33.5757   23.9309   -0.2254 H         1 UNK         0.0705 
     81 H81        33.9540   25.6316    1.5988 H         1 UNK         0.1334 
     82 H82        32.4797   24.6077    5.5047 H         1 UNK         0.1417 
     83 H83        31.1713   22.4144    2.0812 H         1 UNK         0.1562 
     84 H84        31.1269   22.6824    5.8325 H         1 UNK         0.0748 
     85 H85        31.0978   21.4925    4.5573 H         1 UNK         0.0748 
     86 H86        29.6870   24.6857    5.9428 H         1 UNK         0.0940 
     87 H87        27.9629   24.5229    5.7762 H         1 UNK         0.0940 
     88 H88        29.8740   25.6620    3.6759 H         1 UNK         0.0703 
     89 H89        28.3832   25.1310    2.1416 H         1 UNK         0.3081 
     90 H90        26.1138   23.9720    1.5186 H         1 UNK         0.0719 
     91 H91        24.0497   26.1422    2.1566 H         1 UNK         0.0809 
     92 H92        23.8768   24.9034    0.9134 H         1 UNK         0.0809 
     93 H93        23.9585   24.4474    2.6069 H         1 UNK         0.0809 
     94 H94        26.8966   25.2718   -0.0603 H         1 UNK         0.2990 
     95 H95        26.3553   28.6314   -0.9714 H         1 UNK         0.0690 
     96 H96        28.7178   29.1679   -1.0690 H         1 UNK         0.0788 
     97 H97        29.1710   27.6633   -0.2809 H         1 UNK         0.0788 
     98 H98        28.3811   28.9466    0.6369 H         1 UNK         0.0788 
     99 H99        27.0086   25.9206   -1.6197 H         1 UNK         0.2993 
    100 H100       26.7481   25.5521   -4.1446 H         1 UNK         0.0949 
    101 H101       28.3223   25.5948   -6.0694 H         1 UNK         0.0767 
    102 H102       27.5450   27.1543   -5.8666 H         1 UNK         0.0767 
    103 H103       29.2085   26.9345   -5.3397 H         1 UNK         0.0767 
    104 H104       29.5817   25.0200   -3.8396 H         1 UNK         0.3013 
    105 H105       27.6376   27.7401    3.2352 H         1 UNK         0.3121 
    106 H106       27.5193   29.2478    5.7099 H         1 UNK         0.0774 
    107 H107       26.1498   30.7929    4.3598 H         1 UNK         0.0815 
    108 H108       26.7110   30.0614    2.8618 H         1 UNK         0.0815 
    109 H109       25.6773   29.1558    3.9628 H         1 UNK         0.0815 
    110 H110       27.8359   31.7960    5.2308 H         1 UNK         0.2987 
    111 H111       30.5699   32.3961    5.3059 H         1 UNK         0.0949 
    112 H112       28.1921   34.2306    4.6754 H         1 UNK         0.0806 
    113 H113       28.8194   33.8534    6.2812 H         1 UNK         0.0806 
    114 H114       29.7961   34.7725    5.1499 H         1 UNK         0.0806 
    115 H115       28.4290   32.2334    2.5160 H         1 UNK         0.3010 
    116 H116       30.1332   33.4279    0.5614 H         1 UNK         0.0829 
    117 H117       27.7325   33.0755    0.1435 H         1 UNK         0.0813 
    118 H118       28.6505   32.1715   -1.0478 H         1 UNK         0.0813 
    119 H119       27.9086   31.3298    0.3053 H         1 UNK         0.0813 
    120 H120       30.3182   30.3022    2.1658 H         1 UNK         0.3038 
    121 H121       32.1858   29.1605    0.1837 H         1 UNK         0.0769 
    122 H122       31.5033   27.9578    2.9039 H         1 UNK         0.0811 
    123 H123       31.9395   27.1588    1.4025 H         1 UNK         0.0811 
    124 H124       30.3430   27.8445    1.6012 H         1 UNK         0.0811 
    125 H125       32.3005   31.3609    2.7521 H         1 UNK         0.3204 
    126 H126       33.7392   32.2053    4.1595 H         1 UNK         0.0748 
    127 H127       36.1567   32.0546    3.8763 H         1 UNK         0.0771 
    128 H128       36.0179   30.6376    2.8511 H         1 UNK         0.0771 
    129 H129       35.4207   32.1994    2.2890 H         1 UNK         0.0771 
    130 H130       32.1811   29.9590    4.8868 H         1 UNK         0.2980 
    131 H131       33.7231   29.0446    7.2415 H         1 UNK         0.0545 
    132 H132       31.9763   28.1538    8.9615 H         1 UNK         0.3459 
    133 H133       30.7151   29.3277    9.2327 H         1 UNK         0.3459 
    134 H134       32.1642   26.9041    7.0939 H         1 UNK         0.0616 
    135 H135       31.9718   27.3207    5.4175 H         1 UNK         0.0616 
    136 H136       35.2152   26.2410    3.8173 H         1 UNK         0.0634 
    137 H137       33.8547   27.3302    3.7180 H         1 UNK         0.0634 
@<TRIPOS>BOND
     1    1    2 1    
     2    1   72 1    
     3    1   73 1    
     4    1   74 1    
     5    2    3 2    
     6    2    4 am   BACKBONE|DICT|INTERRES
     7    4    5 1    
     8    4   75 1    
     9    5    6 1    
    10    5   35 1    
    11    5   76 1    
    12    6    7 1    
    13    6   77 1    
    14    6   78 1    
    15    7    8 1    
    16    8    9 1    
    17    8   79 1    
    18    8   80 1    
    19    9   10 ar   
    20    9   14 ar   
    21   10   11 ar   
    22   10   81 1    
    23   11   12 ar   
    24   11   71 1    
    25   12   13 ar   
    26   12   82 1    
    27   13   14 ar   
    28   13   15 1    
    29   14   83 1    
    30   15   16 1    
    31   15   84 1    
    32   15   85 1    
    33   16   17 1    
    34   17   18 1    
    35   17   86 1    
    36   17   87 1    
    37   18   19 1    
    38   18   37 1    
    39   18   88 1    
    40   19   20 am   BACKBONE|DICT|INTERRES
    41   19   89 1    
    42   20   21 2    
    43   20   22 1    
    44   22   23 1    
    45   22   24 1    
    46   22   90 1    
    47   23   91 1    
    48   23   92 1    
    49   23   93 1    
    50   24   25 am   BACKBONE|DICT|INTERRES
    51   24   94 1    
    52   25   26 2    
    53   25   27 1    
    54   27   28 1    
    55   27   29 1    
    56   27   95 1    
    57   28   96 1    
    58   28   97 1    
    59   28   98 1    
    60   29   30 am   BACKBONE|DICT|INTERRES
    61   29   99 1    
    62   30   31 2    
    63   30   32 1    
    64   32   33 1    
    65   32   34 1    
    66   32  100 1    
    67   33  101 1    
    68   33  102 1    
    69   33  103 1    
    70   34   35 am   BACKBONE|DICT|INTERRES
    71   34  104 1    
    72   35   36 2    
    73   37   38 2    
    74   37   39 am   BACKBONE|DICT|INTERRES
    75   39   40 1    
    76   39  105 1    
    77   40   41 1    
    78   40   42 1    
    79   40  106 1    
    80   41  107 1    
    81   41  108 1    
    82   41  109 1    
    83   42   43 2    
    84   42   44 am   BACKBONE|DICT|INTERRES
    85   44   45 1    
    86   44  110 1    
    87   45   46 1    
    88   45   47 1    
    89   45  111 1    
    90   46  112 1    
    91   46  113 1    
    92   46  114 1    
    93   47   48 2    
    94   47   49 am   BACKBONE|DICT|INTERRES
    95   49   50 1    
    96   49  115 1    
    97   50   51 1    
    98   50   52 1    
    99   50  116 1    
   100   51  117 1    
   101   51  118 1    
   102   51  119 1    
   103   52   53 2    
   104   52   54 am   BACKBONE|DICT|INTERRES
   105   54   55 1    
   106   54  120 1    
   107   55   56 1    
   108   55   57 1    
   109   55  121 1    
   110   56  122 1    
   111   56  123 1    
   112   56  124 1    
   113   57   58 2    
   114   57   59 am   BACKBONE|DICT|INTERRES
   115   59   60 1    
   116   59  125 1    
   117   60   61 1    
   118   60   62 1    
   119   60  126 1    
   120   61  127 1    
   121   61  128 1    
   122   61  129 1    
   123   62   63 2    
   124   62   64 am   BACKBONE|DICT|INTERRES
   125   64   65 1    
   126   64  130 1    
   127   65   66 1    
   128   65   69 1    
   129   65  131 1    
   130   66   67 am   BACKBONE|DICT|INTERRES
   131   66   68 2    
   132   67  132 1    
   133   67  133 1    
   134   69   70 1    
   135   69  134 1    
   136   69  135 1    
   137   70   71 1    
   138   71  136 1    
   139   71  137 1    
@<TRIPOS>SUBSTRUCTURE
     1 UNK         1 GROUP             0       ****    0 ROOT    
