@<TRIPOS>MOLECULE
3R136
137   139    1
SMALL
USER_CHARGES


@<TRIPOS>ATOM
      1 CA         26.2594   19.6787   -1.5623 C.3       0 UNK        -0.1979 
      2 C          27.1085   20.8447   -2.0475 C.2       0 UNK         0.4864 
      3 O          27.0536   21.1906   -3.2291 O.2       0 UNK        -0.5359 
      4 N          27.8972   21.4456   -1.1470 N.am      1 UNK        -0.4318 
      5 CA         28.7186   22.6303   -1.4152 C.3       1 UNK         0.0824 
      6 C6         29.8635   22.7561   -0.3819 C.3       12 UNK        -0.0944 
      7 S7         31.2843   23.7261   -1.0001 S.3       12 UNK        -0.2672 
      8 C8         32.5948   23.2410    0.1681 C.3       12 UNK         0.0333 
      9 C9         32.2232   23.6091    1.5954 C.ar      12 UNK        -0.0807 
     10 C10        32.4676   24.8961    2.0821 C.ar      12 UNK        -0.0894 
     11 C11        32.0789   25.2502    3.3790 C.ar      12 UNK        -0.0804 
     12 C12        31.4370   24.3055    4.1842 C.ar      12 UNK        -0.0824 
     13 C13        31.1509   23.0293    3.6898 C.ar      12 UNK        -0.0762 
     14 C14        31.5801   22.6748    2.4106 C.ar      12 UNK        -0.0782 
     15 C15        30.2991   22.0595    4.4930 C.3       12 UNK         0.0230 
     16 S16        28.5505   22.1593    3.9719 S.3       12 UNK        -0.2608 
     17 C17        28.1166   23.8434    4.5241 C.3       12 UNK        -0.0989 
     18 CA         28.0714   24.8733    3.3501 C.3       5 UNK         0.0716 
     19 N          26.8991   24.7252    2.4774 N.am      5 UNK        -0.4135 
     20 C          25.6138   24.8343    2.8449 C.2       4 UNK         0.5031 
     21 O          25.2335   25.0597    3.9956 O.2       4 UNK        -0.5229 
     22 CA         24.5850   24.6775    1.7103 C.3       4 UNK         0.0329 
     23 CB         23.1270   24.5999    2.2130 C.3       4 UNK        -0.2001 
     24 N          24.7396   25.7271    0.6984 N.am      4 UNK        -0.4303 
     25 C          24.6343   27.0554    0.8744 C.2       3 UNK         0.5044 
     26 O          24.2963   27.5858    1.9331 O.2       3 UNK        -0.5152 
     27 CA         24.9452   27.9429   -0.3509 C.3       3 UNK         0.0319 
     28 CB         25.4207   29.3585    0.0304 C.3       3 UNK        -0.2001 
     29 N          25.8748   27.3418   -1.3152 N.am      3 UNK        -0.4354 
     30 C          27.1150   26.8855   -1.0843 C.2       2 UNK         0.4964 
     31 O          27.6828   26.9023    0.0125 O.2       2 UNK        -0.5047 
     32 CA         27.8206   26.2765   -2.3075 C.3       2 UNK         0.0288 
     33 CB         28.8969   27.2333   -2.8435 C.3       2 UNK        -0.2113 
     34 N          28.4284   24.9692   -2.0528 N.am      2 UNK        -0.4145 
     35 C          27.8515   23.9075   -1.4722 C.2       1 UNK         0.5006 
     36 O          26.7130   23.9103   -0.9902 O.2       1 UNK        -0.5103 
     37 C          28.2455   26.3365    3.8202 C.2       5 UNK         0.5055 
     38 O          28.4392   26.5821    5.0128 O.2       5 UNK        -0.5220 
     39 N          28.1989   27.2900    2.8793 N.am      6 UNK        -0.4450 
     40 CA         28.4172   28.7150    3.1431 C.3       6 UNK         0.0367 
     41 CB         27.1065   29.3821    3.6055 C.3       6 UNK        -0.1929 
     42 C          29.0562   29.3854    1.9179 C.2       6 UNK         0.5070 
     43 O          28.5972   30.4377    1.4733 O.2       6 UNK        -0.5237 
     44 N          30.1025   28.7416    1.3818 N.am      7 UNK        -0.4739 
     45 CA         30.8007   29.1162    0.1474 C.3       7 UNK         0.0276 
     46 CB         31.8315   28.0239   -0.1834 C.3       7 UNK        -0.1927 
     47 C          31.4758   30.5015    0.1644 C.2       7 UNK         0.5013 
     48 O          31.6475   31.0947   -0.9015 O.2       7 UNK        -0.5193 
     49 N          31.8415   30.9926    1.3529 N.am      8 UNK        -0.4253 
     50 CA         32.4149   32.3131    1.5945 C.3       8 UNK         0.0242 
     51 CB         33.9209   32.3091    1.2676 C.3       8 UNK        -0.2000 
     52 C          32.1755   32.6732    3.0631 C.2       8 UNK         0.4948 
     53 O          31.9735   31.7734    3.8813 O.2       8 UNK        -0.5275 
     54 N          32.2510   33.9699    3.3901 N.am      9 UNK        -0.4246 
     55 CA         32.0778   34.4917    4.7532 C.3       9 UNK         0.0261 
     56 CB         32.0346   36.0280    4.7097 C.3       9 UNK        -0.1959 
     57 C          33.1510   34.0109    5.7498 C.2       9 UNK         0.5033 
     58 O          32.8617   33.8976    6.9415 O.2       9 UNK        -0.5390 
     59 N          34.3592   33.7275    5.2447 N.am      10 UNK        -0.4215 
     60 CA         35.4802   33.1753    6.0090 C.3       10 UNK         0.0240 
     61 CB         36.7942   33.6129    5.3386 C.3       10 UNK        -0.1982 
     62 C          35.4331   31.6401    6.1446 C.2       10 UNK         0.4970 
     63 O          36.2187   31.0920    6.9191 O.2       10 UNK        -0.4916 
     64 N          34.5579   30.9687    5.3838 N.am      11 UNK        -0.4279 
     65 CA         34.3925   29.5103    5.3871 C.3       11 UNK         0.1003 
     66 C          33.6754   29.0067    6.6709 C.2       11 UNK         0.5709 
     67 N          34.0395   27.8321    7.1671 N.am      11 UNK        -0.7358 
     68 O          32.7760   29.6549    7.2028 O.2       11 UNK        -0.4999 
     69 C69        33.6719   29.0563    4.0925 C.3       12 UNK        -0.0954 
     70 S70        33.9478   27.3050    3.6762 S.3       12 UNK        -0.2268 
     71 C71        32.2550   26.6747    3.8839 C.3       12 UNK         0.0203 
     72 H72        26.4164   19.4724   -0.5037 H         1 UNK         0.0888 
     73 H73        25.2025   19.8978   -1.7115 H         1 UNK         0.0888 
     74 H74        26.5039   18.7770   -2.1232 H         1 UNK         0.0888 
     75 H75        27.8728   21.1368   -0.1860 H         1 UNK         0.3017 
     76 H76        29.1643   22.4919   -2.4033 H         1 UNK         0.0873 
     77 H77        30.2410   21.7621   -0.1367 H         1 UNK         0.0745 
     78 H78        29.5042   23.1856    0.5556 H         1 UNK         0.0745 
     79 H79        32.7815   22.1693    0.0829 H         1 UNK         0.0705 
     80 H80        33.5245   23.7376   -0.1136 H         1 UNK         0.0705 
     81 H81        32.9403   25.6280    1.4420 H         1 UNK         0.1334 
     82 H82        31.1050   24.5846    5.1747 H         1 UNK         0.1417 
     83 H83        31.3568   21.6883    2.0279 H         1 UNK         0.1562 
     84 H84        30.3817   22.2610    5.5622 H         1 UNK         0.0748 
     85 H85        30.6579   21.0398    4.3451 H         1 UNK         0.0748 
     86 H86        28.8362   24.1357    5.2886 H         1 UNK         0.0940 
     87 H87        27.1649   23.7999    5.0531 H         1 UNK         0.0940 
     88 H88        28.9362   24.6851    2.7122 H         1 UNK         0.0703 
     89 H89        27.0954   24.5798    1.4964 H         1 UNK         0.3081 
     90 H90        24.8092   23.7320    1.2133 H         1 UNK         0.0719 
     91 H91        22.4310   24.4493    1.3879 H         1 UNK         0.0809 
     92 H92        22.8273   25.5042    2.7434 H         1 UNK         0.0809 
     93 H93        22.9992   23.7644    2.9023 H         1 UNK         0.0809 
     94 H94        25.0659   25.4021   -0.2033 H         1 UNK         0.2990 
     95 H95        23.9946   28.0516   -0.8750 H         1 UNK         0.0690 
     96 H96        25.5219   29.9917   -0.8508 H         1 UNK         0.0788 
     97 H97        26.3876   29.3305    0.5286 H         1 UNK         0.0788 
     98 H98        24.7170   29.8521    0.7016 H         1 UNK         0.0788 
     99 H99        25.5111   27.2559   -2.2547 H         1 UNK         0.2993 
    100 H100       27.0795   26.1254   -3.0950 H         1 UNK         0.0949 
    101 H101       28.4944   28.2354   -2.9995 H         1 UNK         0.0767 
    102 H102       29.7338   27.3193   -2.1514 H         1 UNK         0.0767 
    103 H103       29.2906   26.8909   -3.8008 H         1 UNK         0.0767 
    104 H104       29.3912   24.8690   -2.3426 H         1 UNK         0.3013 
    105 H105       28.0297   27.0433    1.9041 H         1 UNK         0.3121 
    106 H106       29.1480   28.8238    3.9477 H         1 UNK         0.0774 
    107 H107       27.2489   30.4480    3.7876 H         1 UNK         0.0815 
    108 H108       26.3160   29.2766    2.8640 H         1 UNK         0.0815 
    109 H109       26.7466   28.9421    4.5355 H         1 UNK         0.0815 
    110 H110       30.3865   27.8709    1.8042 H         1 UNK         0.2987 
    111 H111       30.0520   29.1406   -0.6466 H         1 UNK         0.0949 
    112 H112       32.6088   27.9617    0.5795 H         1 UNK         0.0806 
    113 H113       31.3631   27.0427   -0.2680 H         1 UNK         0.0806 
    114 H114       32.3249   28.2284   -1.1346 H         1 UNK         0.0806 
    115 H115       31.6212   30.4761    2.1951 H         1 UNK         0.3010 
    116 H116       31.8999   33.0455    0.9690 H         1 UNK         0.0829 
    117 H117       34.1006   32.0491    0.2243 H         1 UNK         0.0813 
    118 H118       34.3633   33.2922    1.4314 H         1 UNK         0.0813 
    119 H119       34.4679   31.5968    1.8858 H         1 UNK         0.0813 
    120 H120       32.4240   34.6495    2.6624 H         1 UNK         0.3038 
    121 H121       31.1137   34.1346    5.1221 H         1 UNK         0.0769 
    122 H122       31.8806   36.4421    5.7074 H         1 UNK         0.0811 
    123 H123       31.2164   36.3854    4.0842 H         1 UNK         0.0811 
    124 H124       32.9636   36.4488    4.3229 H         1 UNK         0.0811 
    125 H125       34.5080   33.8709    4.2566 H         1 UNK         0.3204 
    126 H126       35.4608   33.5902    7.0191 H         1 UNK         0.0748 
    127 H127       37.6587   33.2581    5.9018 H         1 UNK         0.0771 
    128 H128       36.8825   33.2196    4.3250 H         1 UNK         0.0771 
    129 H129       36.8702   34.6993    5.2860 H         1 UNK         0.0771 
    130 H130       33.8689   31.4827    4.8502 H         1 UNK         0.2980 
    131 H131       35.3976   29.0830    5.3758 H         1 UNK         0.0545 
    132 H132       34.7580   27.2823    6.7226 H         1 UNK         0.3459 
    133 H133       33.5805   27.4850    7.9943 H         1 UNK         0.3459 
    134 H134       32.6035   29.2694    4.1500 H         1 UNK         0.0616 
    135 H135       34.0415   29.6284    3.2406 H         1 UNK         0.0616 
    136 H136       31.9835   26.7514    4.9381 H         1 UNK         0.0634 
    137 H137       31.5623   27.3145    3.3386 H         1 UNK         0.0634 
@<TRIPOS>BOND
     1    1    2 1    
     2    1   72 1    
     3    1   73 1    
     4    1   74 1    
     5    2    3 2    
     6    2    4 am   BACKBONE|DICT|INTERRES
     7    4    5 1    
     8    4   75 1    
     9    5    6 1    
    10    5   35 1    
    11    5   76 1    
    12    6    7 1    
    13    6   77 1    
    14    6   78 1    
    15    7    8 1    
    16    8    9 1    
    17    8   79 1    
    18    8   80 1    
    19    9   10 ar   
    20    9   14 ar   
    21   10   11 ar   
    22   10   81 1    
    23   11   12 ar   
    24   11   71 1    
    25   12   13 ar   
    26   12   82 1    
    27   13   14 ar   
    28   13   15 1    
    29   14   83 1    
    30   15   16 1    
    31   15   84 1    
    32   15   85 1    
    33   16   17 1    
    34   17   18 1    
    35   17   86 1    
    36   17   87 1    
    37   18   19 1    
    38   18   37 1    
    39   18   88 1    
    40   19   20 am   BACKBONE|DICT|INTERRES
    41   19   89 1    
    42   20   21 2    
    43   20   22 1    
    44   22   23 1    
    45   22   24 1    
    46   22   90 1    
    47   23   91 1    
    48   23   92 1    
    49   23   93 1    
    50   24   25 am   BACKBONE|DICT|INTERRES
    51   24   94 1    
    52   25   26 2    
    53   25   27 1    
    54   27   28 1    
    55   27   29 1    
    56   27   95 1    
    57   28   96 1    
    58   28   97 1    
    59   28   98 1    
    60   29   30 am   BACKBONE|DICT|INTERRES
    61   29   99 1    
    62   30   31 2    
    63   30   32 1    
    64   32   33 1    
    65   32   34 1    
    66   32  100 1    
    67   33  101 1    
    68   33  102 1    
    69   33  103 1    
    70   34   35 am   BACKBONE|DICT|INTERRES
    71   34  104 1    
    72   35   36 2    
    73   37   38 2    
    74   37   39 am   BACKBONE|DICT|INTERRES
    75   39   40 1    
    76   39  105 1    
    77   40   41 1    
    78   40   42 1    
    79   40  106 1    
    80   41  107 1    
    81   41  108 1    
    82   41  109 1    
    83   42   43 2    
    84   42   44 am   BACKBONE|DICT|INTERRES
    85   44   45 1    
    86   44  110 1    
    87   45   46 1    
    88   45   47 1    
    89   45  111 1    
    90   46  112 1    
    91   46  113 1    
    92   46  114 1    
    93   47   48 2    
    94   47   49 am   BACKBONE|DICT|INTERRES
    95   49   50 1    
    96   49  115 1    
    97   50   51 1    
    98   50   52 1    
    99   50  116 1    
   100   51  117 1    
   101   51  118 1    
   102   51  119 1    
   103   52   53 2    
   104   52   54 am   BACKBONE|DICT|INTERRES
   105   54   55 1    
   106   54  120 1    
   107   55   56 1    
   108   55   57 1    
   109   55  121 1    
   110   56  122 1    
   111   56  123 1    
   112   56  124 1    
   113   57   58 2    
   114   57   59 am   BACKBONE|DICT|INTERRES
   115   59   60 1    
   116   59  125 1    
   117   60   61 1    
   118   60   62 1    
   119   60  126 1    
   120   61  127 1    
   121   61  128 1    
   122   61  129 1    
   123   62   63 2    
   124   62   64 am   BACKBONE|DICT|INTERRES
   125   64   65 1    
   126   64  130 1    
   127   65   66 1    
   128   65   69 1    
   129   65  131 1    
   130   66   67 am   BACKBONE|DICT|INTERRES
   131   66   68 2    
   132   67  132 1    
   133   67  133 1    
   134   69   70 1    
   135   69  134 1    
   136   69  135 1    
   137   70   71 1    
   138   71  136 1    
   139   71  137 1    
@<TRIPOS>SUBSTRUCTURE
     1 UNK         1 GROUP             0       ****    0 ROOT    
