@<TRIPOS>MOLECULE
3R136
137   139    1
SMALL
USER_CHARGES


@<TRIPOS>ATOM
      1 CA         28.4264   18.9553    1.2790 C.3       0 UNK        -0.1979 
      2 C          28.7109   19.5551   -0.0904 C.2       0 UNK         0.4864 
      3 O          28.4290   18.9194   -1.1078 O.2       0 UNK        -0.5359 
      4 N          29.2733   20.7692   -0.1211 N.am      1 UNK        -0.4318 
      5 CA         29.5393   21.5420   -1.3374 C.3       1 UNK         0.0824 
      6 C6         30.7359   22.5137   -1.1451 C.3       12 UNK        -0.0944 
      7 S7         30.5073   23.7636    0.1679 S.3       12 UNK        -0.2672 
      8 C8         31.5027   23.0547    1.5164 C.3       12 UNK         0.0333 
      9 C9         31.3643   23.8803    2.7857 C.ar      12 UNK        -0.0807 
     10 C10        32.3866   24.7460    3.1833 C.ar      12 UNK        -0.0894 
     11 C11        32.2507   25.5201    4.3397 C.ar      12 UNK        -0.0804 
     12 C12        31.0839   25.4216    5.1051 C.ar      12 UNK        -0.0824 
     13 C13        30.0608   24.5480    4.7235 C.ar      12 UNK        -0.0762 
     14 C14        30.2080   23.7799    3.5645 C.ar      12 UNK        -0.0782 
     15 C15        28.8010   24.4088    5.5642 C.3       12 UNK         0.0230 
     16 S16        27.3804   25.2535    4.8004 S.3       12 UNK        -0.2608 
     17 C17        27.5723   26.9706    5.3913 C.3       12 UNK        -0.0989 
     18 CA         27.9996   27.9706    4.2867 C.3       5 UNK         0.0716 
     19 N          27.1338   27.9041    3.1058 N.am      5 UNK        -0.4135 
     20 C          27.3308   28.5748    1.9649 C.2       4 UNK         0.5031 
     21 O          28.2767   29.3429    1.7649 O.2       4 UNK        -0.5229 
     22 CA         26.2755   28.3835    0.8647 C.3       4 UNK         0.0329 
     23 CB         25.4183   29.6496    0.7136 C.3       4 UNK        -0.2001 
     24 N          26.9093   28.0800   -0.4175 N.am      4 UNK        -0.4303 
     25 C          27.4709   26.9039   -0.7206 C.2       3 UNK         0.5044 
     26 O          27.4563   25.9237    0.0263 O.2       3 UNK        -0.5152 
     27 CA         28.1929   26.8306   -2.0768 C.3       3 UNK         0.0319 
     28 CB         29.6638   27.2477   -1.9267 C.3       3 UNK        -0.2001 
     29 N          28.1445   25.4846   -2.6471 N.am      3 UNK        -0.4354 
     30 C          27.0620   24.9267   -3.2059 C.2       2 UNK         0.4964 
     31 O          25.9906   25.5163   -3.3554 O.2       2 UNK        -0.5047 
     32 CA         27.1945   23.4764   -3.7106 C.3       2 UNK         0.0288 
     33 CB         27.3842   23.4554   -5.2369 C.3       2 UNK        -0.2113 
     34 N          28.2918   22.7312   -3.0830 N.am      2 UNK        -0.4145 
     35 C          28.2599   22.2563   -1.8297 C.2       1 UNK         0.5006 
     36 O          27.2825   22.3729   -1.0843 O.2       1 UNK        -0.5103 
     37 C          28.0142   29.4017    4.8597 C.2       5 UNK         0.5055 
     38 O          26.9429   29.9700    5.0867 O.2       5 UNK        -0.5220 
     39 N          29.2140   29.9576    5.0641 N.am      6 UNK        -0.4450 
     40 CA         29.5456   31.3012    5.5594 C.3       6 UNK         0.0367 
     41 CB         28.9684   31.5534    6.9655 C.3       6 UNK        -0.1929 
     42 C          29.1860   32.4439    4.5933 C.2       6 UNK         0.5070 
     43 O          29.9740   33.3792    4.4552 O.2       6 UNK        -0.5237 
     44 N          28.0209   32.3572    3.9406 N.am      7 UNK        -0.4739 
     45 CA         27.5214   33.3319    2.9694 C.3       7 UNK         0.0276 
     46 CB         26.0351   33.0580    2.6947 C.3       7 UNK        -0.1927 
     47 C          28.3256   33.3577    1.6581 C.2       7 UNK         0.5013 
     48 O          28.4522   34.4275    1.0605 O.2       7 UNK        -0.5193 
     49 N          28.8561   32.2001    1.2425 N.am      8 UNK        -0.4253 
     50 CA         29.7283   32.0551    0.0776 C.3       8 UNK         0.0242 
     51 CB         28.9800   31.3307   -1.0550 C.3       8 UNK        -0.2000 
     52 C          31.0135   31.3166    0.4676 C.2       8 UNK         0.4948 
     53 O          32.1034   31.8478    0.2503 O.2       8 UNK        -0.5275 
     54 N          30.8716   30.1184    1.0472 N.am      9 UNK        -0.4246 
     55 CA         31.9780   29.2939    1.5220 C.3       9 UNK         0.0261 
     56 CB         31.6734   27.8162    1.2239 C.3       9 UNK        -0.1959 
     57 C          32.1648   29.5319    3.0223 C.2       9 UNK         0.5033 
     58 O          31.4208   28.9604    3.8202 O.2       9 UNK        -0.5390 
     59 N          33.1356   30.3757    3.3843 N.am      10 UNK        -0.4215 
     60 CA         33.5543   30.6044    4.7669 C.3       10 UNK         0.0240 
     61 CB         33.8038   32.1058    4.9828 C.3       10 UNK        -0.1982 
     62 C          34.8263   29.7906    5.0362 C.2       10 UNK         0.4970 
     63 O          35.7506   29.8308    4.2205 O.2       10 UNK        -0.4916 
     64 N          34.8475   29.0694    6.1614 N.am      11 UNK        -0.4279 
     65 CA         35.9403   28.1687    6.5624 C.3       11 UNK         0.1003 
     66 C          36.0582   27.9710    8.1016 C.2       11 UNK         0.5709 
     67 N          35.3996   28.7784    8.9266 N.am      11 UNK        -0.7358 
     68 O          36.7785   27.0893    8.5639 O.2       11 UNK        -0.4999 
     69 C69        35.9566   26.8432    5.7433 C.3       12 UNK        -0.0954 
     70 S70        34.4910   25.7707    5.9585 S.3       12 UNK        -0.2268 
     71 C71        33.3522   26.4878    4.7374 C.3       12 UNK         0.0203 
     72 H72        28.7487   19.6118    2.0870 H         1 UNK         0.0888 
     73 H73        27.3580   18.7752    1.3944 H         1 UNK         0.0888 
     74 H74        28.9467   18.0041    1.3878 H         1 UNK         0.0888 
     75 H75        29.4228   21.2701    0.7418 H         1 UNK         0.3017 
     76 H76        29.8233   20.8382   -2.1233 H         1 UNK         0.0873 
     77 H77        31.6385   21.9379   -0.9337 H         1 UNK         0.0745 
     78 H78        30.9511   23.0417   -2.0756 H         1 UNK         0.0745 
     79 H79        31.1875   22.0294    1.7130 H         1 UNK         0.0705 
     80 H80        32.5467   23.0028    1.2033 H         1 UNK         0.0705 
     81 H81        33.2840   24.8282    2.5854 H         1 UNK         0.1334 
     82 H82        30.9766   26.0237    5.9969 H         1 UNK         0.1417 
     83 H83        29.4128   23.1127    3.2604 H         1 UNK         0.1562 
     84 H84        28.9605   24.7760    6.5791 H         1 UNK         0.0748 
     85 H85        28.5588   23.3499    5.6660 H         1 UNK         0.0748 
     86 H86        28.2881   26.9945    6.2150 H         1 UNK         0.0940 
     87 H87        26.6144   27.2680    5.8240 H         1 UNK         0.0940 
     88 H88        29.0083   27.7072    3.9600 H         1 UNK         0.0703 
     89 H89        26.3318   27.2973    3.1877 H         1 UNK         0.3081 
     90 H90        25.6190   27.5526    1.1332 H         1 UNK         0.0719 
     91 H91        26.0201   30.5128    0.4256 H         1 UNK         0.0809 
     92 H92        24.6424   29.5158   -0.0404 H         1 UNK         0.0809 
     93 H93        24.9173   29.8940    1.6512 H         1 UNK         0.0809 
     94 H94        26.9827   28.8415   -1.0751 H         1 UNK         0.2990 
     95 H95        27.7053   27.5186   -2.7712 H         1 UNK         0.0690 
     96 H96        30.1648   27.2920   -2.8939 H         1 UNK         0.0788 
     97 H97        30.2106   26.5441   -1.2984 H         1 UNK         0.0788 
     98 H98        29.7531   28.2340   -1.4700 H         1 UNK         0.0788 
     99 H99        28.9641   24.9116   -2.5156 H         1 UNK         0.2993 
    100 H100       26.2560   22.9678   -3.4778 H         1 UNK         0.0949 
    101 H101       26.5663   23.9743   -5.7391 H         1 UNK         0.0767 
    102 H102       28.3123   23.9443   -5.5360 H         1 UNK         0.0767 
    103 H103       27.4014   22.4352   -5.6211 H         1 UNK         0.0767 
    104 H104       29.1196   22.5873   -3.6439 H         1 UNK         0.3013 
    105 H105       30.0263   29.4381    4.7206 H         1 UNK         0.3121 
    106 H106       30.6320   31.3124    5.6509 H         1 UNK         0.0774 
    107 H107       29.3209   32.5061    7.3627 H         1 UNK         0.0815 
    108 H108       27.8788   31.5904    6.9614 H         1 UNK         0.0815 
    109 H109       29.2759   30.7766    7.6655 H         1 UNK         0.0815 
    110 H110       27.4278   31.5600    4.1569 H         1 UNK         0.2987 
    111 H111       27.6060   34.3240    3.4187 H         1 UNK         0.0949 
    112 H112       25.8777   32.0531    2.3059 H         1 UNK         0.0806 
    113 H113       25.4395   33.1619    3.6019 H         1 UNK         0.0806 
    114 H114       25.6348   33.7605    1.9623 H         1 UNK         0.0806 
    115 H115       28.6840   31.3597    1.7841 H         1 UNK         0.3010 
    116 H116       30.0296   33.0369   -0.2944 H         1 UNK         0.0829 
    117 H117       28.1138   31.9052   -1.3834 H         1 UNK         0.0813 
    118 H118       29.6256   31.1901   -1.9229 H         1 UNK         0.0813 
    119 H119       28.6291   30.3479   -0.7445 H         1 UNK         0.0813 
    120 H120       29.9348   29.7698    1.2499 H         1 UNK         0.3038 
    121 H121       32.9037   29.5520    1.0031 H         1 UNK         0.0769 
    122 H122       31.6560   27.6318    0.1518 H         1 UNK         0.0811 
    123 H123       30.7155   27.4991    1.6401 H         1 UNK         0.0811 
    124 H124       32.4426   27.1690    1.6448 H         1 UNK         0.0811 
    125 H125       33.7203   30.7856    2.6686 H         1 UNK         0.3204 
    126 H126       32.7741   30.2857    5.4606 H         1 UNK         0.0748 
    127 H127       32.9007   32.6867    4.7919 H         1 UNK         0.0771 
    128 H128       34.1080   32.3076    6.0107 H         1 UNK         0.0771 
    129 H129       34.5898   32.4855    4.3285 H         1 UNK         0.0771 
    130 H130       34.0462   29.0747    6.7753 H         1 UNK         0.2980 
    131 H131       36.8687   28.6880    6.3176 H         1 UNK         0.0545 
    132 H132       35.4959   28.6365    9.9200 H         1 UNK         0.3459 
    133 H133       34.8657   29.5606    8.5860 H         1 UNK         0.3459 
    134 H134       36.0794   27.0634    4.6822 H         1 UNK         0.0616 
    135 H135       36.8364   26.2544    6.0079 H         1 UNK         0.0616 
    136 H136       33.9017   26.8109    3.8522 H         1 UNK         0.0634 
    137 H137       32.9071   27.3813    5.1719 H         1 UNK         0.0634 
@<TRIPOS>BOND
     1    1    2 1    
     2    1   72 1    
     3    1   73 1    
     4    1   74 1    
     5    2    3 2    
     6    2    4 am   BACKBONE|DICT|INTERRES
     7    4    5 1    
     8    4   75 1    
     9    5    6 1    
    10    5   35 1    
    11    5   76 1    
    12    6    7 1    
    13    6   77 1    
    14    6   78 1    
    15    7    8 1    
    16    8    9 1    
    17    8   79 1    
    18    8   80 1    
    19    9   10 ar   
    20    9   14 ar   
    21   10   11 ar   
    22   10   81 1    
    23   11   12 ar   
    24   11   71 1    
    25   12   13 ar   
    26   12   82 1    
    27   13   14 ar   
    28   13   15 1    
    29   14   83 1    
    30   15   16 1    
    31   15   84 1    
    32   15   85 1    
    33   16   17 1    
    34   17   18 1    
    35   17   86 1    
    36   17   87 1    
    37   18   19 1    
    38   18   37 1    
    39   18   88 1    
    40   19   20 am   BACKBONE|DICT|INTERRES
    41   19   89 1    
    42   20   21 2    
    43   20   22 1    
    44   22   23 1    
    45   22   24 1    
    46   22   90 1    
    47   23   91 1    
    48   23   92 1    
    49   23   93 1    
    50   24   25 am   BACKBONE|DICT|INTERRES
    51   24   94 1    
    52   25   26 2    
    53   25   27 1    
    54   27   28 1    
    55   27   29 1    
    56   27   95 1    
    57   28   96 1    
    58   28   97 1    
    59   28   98 1    
    60   29   30 am   BACKBONE|DICT|INTERRES
    61   29   99 1    
    62   30   31 2    
    63   30   32 1    
    64   32   33 1    
    65   32   34 1    
    66   32  100 1    
    67   33  101 1    
    68   33  102 1    
    69   33  103 1    
    70   34   35 am   BACKBONE|DICT|INTERRES
    71   34  104 1    
    72   35   36 2    
    73   37   38 2    
    74   37   39 am   BACKBONE|DICT|INTERRES
    75   39   40 1    
    76   39  105 1    
    77   40   41 1    
    78   40   42 1    
    79   40  106 1    
    80   41  107 1    
    81   41  108 1    
    82   41  109 1    
    83   42   43 2    
    84   42   44 am   BACKBONE|DICT|INTERRES
    85   44   45 1    
    86   44  110 1    
    87   45   46 1    
    88   45   47 1    
    89   45  111 1    
    90   46  112 1    
    91   46  113 1    
    92   46  114 1    
    93   47   48 2    
    94   47   49 am   BACKBONE|DICT|INTERRES
    95   49   50 1    
    96   49  115 1    
    97   50   51 1    
    98   50   52 1    
    99   50  116 1    
   100   51  117 1    
   101   51  118 1    
   102   51  119 1    
   103   52   53 2    
   104   52   54 am   BACKBONE|DICT|INTERRES
   105   54   55 1    
   106   54  120 1    
   107   55   56 1    
   108   55   57 1    
   109   55  121 1    
   110   56  122 1    
   111   56  123 1    
   112   56  124 1    
   113   57   58 2    
   114   57   59 am   BACKBONE|DICT|INTERRES
   115   59   60 1    
   116   59  125 1    
   117   60   61 1    
   118   60   62 1    
   119   60  126 1    
   120   61  127 1    
   121   61  128 1    
   122   61  129 1    
   123   62   63 2    
   124   62   64 am   BACKBONE|DICT|INTERRES
   125   64   65 1    
   126   64  130 1    
   127   65   66 1    
   128   65   69 1    
   129   65  131 1    
   130   66   67 am   BACKBONE|DICT|INTERRES
   131   66   68 2    
   132   67  132 1    
   133   67  133 1    
   134   69   70 1    
   135   69  134 1    
   136   69  135 1    
   137   70   71 1    
   138   71  136 1    
   139   71  137 1    
@<TRIPOS>SUBSTRUCTURE
     1 UNK         1 GROUP             0       ****    0 ROOT    
