@<TRIPOS>MOLECULE
3R136
137   139    1
SMALL
USER_CHARGES


@<TRIPOS>ATOM
      1 CA         27.7253   21.7535    0.3224 C.3       0 UNK        -0.1979 
      2 C          28.2228   22.9616   -0.4560 C.2       0 UNK         0.4864 
      3 O          27.9282   23.0785   -1.6456 O.2       0 UNK        -0.5359 
      4 N          28.9645   23.8554    0.2156 N.am      1 UNK        -0.4318 
      5 CA         29.5988   25.0747   -0.3072 C.3       1 UNK         0.0824 
      6 C6         30.3752   25.8121    0.8165 C.3       12 UNK        -0.0944 
      7 S7         31.9309   24.9656    1.2482 S.3       12 UNK        -0.2672 
      8 C8         31.4718   23.9248    2.6740 C.3       12 UNK         0.0333 
      9 C9         31.1108   24.7275    3.9174 C.ar      12 UNK        -0.0807 
     10 C10        32.0563   25.5692    4.5102 C.ar      12 UNK        -0.0894 
     11 C11        31.7535   26.2601    5.6862 C.ar      12 UNK        -0.0804 
     12 C12        30.4892   26.1161    6.2647 C.ar      12 UNK        -0.0824 
     13 C13        29.5311   25.2792    5.6839 C.ar      12 UNK        -0.0762 
     14 C14        29.8526   24.5828    4.5120 C.ar      12 UNK        -0.0782 
     15 C15        28.1850   25.0838    6.3777 C.3       12 UNK         0.0230 
     16 S16        26.7588   25.0425    5.2421 S.3       12 UNK        -0.2608 
     17 C17        26.6351   26.7835    4.7010 C.3       12 UNK        -0.0989 
     18 CA         27.1407   27.0092    3.2481 C.3       5 UNK         0.0716 
     19 N          26.5851   26.0593    2.2721 N.am      5 UNK        -0.4135 
     20 C          25.2998   25.9339    1.9190 C.2       4 UNK         0.5031 
     21 O          24.3726   26.5949    2.3947 O.2       4 UNK        -0.5229 
     22 CA         25.0031   24.8866    0.8425 C.3       4 UNK         0.0329 
     23 CB         24.7017   23.5199    1.4822 C.3       4 UNK        -0.2001 
     24 N          23.8470   25.3491    0.0819 N.am      4 UNK        -0.4303 
     25 C          23.5449   25.1394   -1.2054 C.2       3 UNK         0.5044 
     26 O          22.5201   25.6125   -1.6976 O.2       3 UNK        -0.5152 
     27 CA         24.4912   24.2914   -2.0913 C.3       3 UNK         0.0319 
     28 CB         23.8192   23.8547   -3.4102 C.3       3 UNK        -0.2001 
     29 N          25.7794   24.9324   -2.3926 N.am      3 UNK        -0.4354 
     30 C          26.0051   26.1675   -2.8718 C.2       2 UNK         0.4964 
     31 O          25.1240   27.0003   -3.0870 O.2       2 UNK        -0.5047 
     32 CA         27.4734   26.5093   -3.2075 C.3       2 UNK         0.0288 
     33 CB         27.7518   28.0208   -3.3414 C.3       2 UNK        -0.2113 
     34 N          28.4518   25.8620   -2.3246 N.am      2 UNK        -0.4145 
     35 C          28.5829   26.0102   -0.9981 C.2       1 UNK         0.5006 
     36 O          27.9351   26.8109   -0.3190 O.2       1 UNK        -0.5103 
     37 C          26.9909   28.4828    2.7931 C.2       5 UNK         0.5055 
     38 O          27.0233   29.3870    3.6289 O.2       5 UNK        -0.5220 
     39 N          26.8381   28.7040    1.4800 N.am      6 UNK        -0.4450 
     40 CA         26.6680   30.0160    0.8569 C.3       6 UNK         0.0367 
     41 CB         25.6779   29.8962   -0.3127 C.3       6 UNK        -0.1929 
     42 C          28.0119   30.5915    0.3889 C.2       6 UNK         0.5070 
     43 O          28.2057   31.8040    0.4655 O.2       6 UNK        -0.5237 
     44 N          28.9344   29.7166   -0.0383 N.am      7 UNK        -0.4739 
     45 CA         30.3157   30.0665   -0.3960 C.3       7 UNK         0.0276 
     46 CB         30.7623   29.2349   -1.6113 C.3       7 UNK        -0.1927 
     47 C          31.2870   29.9233    0.7923 C.2       7 UNK         0.5013 
     48 O          32.5016   29.8942    0.5873 O.2       7 UNK        -0.5193 
     49 N          30.7505   29.8502    2.0179 N.am      8 UNK        -0.4253 
     50 CA         31.4712   29.7316    3.2882 C.3       8 UNK         0.0242 
     51 CB         30.4786   29.2357    4.3557 C.3       8 UNK        -0.2000 
     52 C          32.1814   31.0390    3.7057 C.2       8 UNK         0.4948 
     53 O          31.9671   31.5326    4.8141 O.2       8 UNK        -0.5275 
     54 N          33.0121   31.5858    2.8085 N.am      9 UNK        -0.4246 
     55 CA         33.8039   32.8034    3.0160 C.3       9 UNK         0.0261 
     56 CB         34.3068   33.3141    1.6560 C.3       9 UNK        -0.1959 
     57 C          34.9821   32.6010    3.9863 C.2       9 UNK         0.5033 
     58 O          35.4173   33.5630    4.6211 O.2       9 UNK        -0.5390 
     59 N          35.4656   31.3599    4.0883 N.am      10 UNK        -0.4215 
     60 CA         36.4762   30.8915    5.0272 C.3       10 UNK         0.0240 
     61 CB         37.8795   31.0649    4.4198 C.3       10 UNK        -0.1982 
     62 C          36.1697   29.4193    5.3217 C.2       10 UNK         0.4970 
     63 O          35.5336   28.7600    4.4937 O.2       10 UNK        -0.4916 
     64 N          36.6224   28.9368    6.4824 N.am      11 UNK        -0.4279 
     65 CA         36.3658   27.5743    6.9769 C.3       11 UNK         0.1003 
     66 C          37.6102   26.9023    7.6266 C.2       11 UNK         0.5709 
     67 N          38.8112   27.4510    7.4791 N.am      11 UNK        -0.7358 
     68 O          37.4952   25.8571    8.2623 O.2       11 UNK        -0.4999 
     69 C69        35.0899   27.5320    7.8735 C.3       12 UNK        -0.0954 
     70 S70        33.9350   26.2112    7.3808 S.3       12 UNK        -0.2268 
     71 C71        32.7950   27.1603    6.3295 C.3       12 UNK         0.0203 
     72 H72        28.2741   20.8630    0.0175 H         1 UNK         0.0888 
     73 H73        27.8484   21.8792    1.3979 H         1 UNK         0.0888 
     74 H74        26.6684   21.5841    0.1199 H         1 UNK         0.0888 
     75 H75        29.1791   23.6569    1.1801 H         1 UNK         0.3017 
     76 H76        30.3195   24.7648   -1.0671 H         1 UNK         0.0873 
     77 H77        30.6571   26.8175    0.5011 H         1 UNK         0.0745 
     78 H78        29.7610   25.9455    1.7069 H         1 UNK         0.0745 
     79 H79        32.3203   23.2828    2.9148 H         1 UNK         0.0705 
     80 H80        30.6623   23.2528    2.3894 H         1 UNK         0.0705 
     81 H81        33.0360   25.6743    4.0637 H         1 UNK         0.1334 
     82 H82        30.2595   26.6440    7.1804 H         1 UNK         0.1417 
     83 H83        29.1265   23.9099    4.0775 H         1 UNK         0.1562 
     84 H84        28.0153   25.8599    7.1258 H         1 UNK         0.0748 
     85 H85        28.2177   24.1390    6.9216 H         1 UNK         0.0748 
     86 H86        27.1891   27.4142    5.3988 H         1 UNK         0.0940 
     87 H87        25.5904   27.0868    4.7902 H         1 UNK         0.0940 
     88 H88        28.2149   26.8247    3.2569 H         1 UNK         0.0703 
     89 H89        27.2651   25.4874    1.7964 H         1 UNK         0.3081 
     90 H90        25.8778   24.8072    0.1991 H         1 UNK         0.0719 
     91 H91        25.5473   23.1693    2.0754 H         1 UNK         0.0809 
     92 H92        23.8406   23.5732    2.1499 H         1 UNK         0.0809 
     93 H93        24.4912   22.7569    0.7338 H         1 UNK         0.0809 
     94 H94        23.2460   25.9577    0.6237 H         1 UNK         0.2990 
     95 H95        24.7198   23.3811   -1.5369 H         1 UNK         0.0690 
     96 H96        23.5870   24.7084   -4.0483 H         1 UNK         0.0788 
     97 H97        22.8843   23.3269   -3.2175 H         1 UNK         0.0788 
     98 H98        24.4606   23.1793   -3.9764 H         1 UNK         0.0788 
     99 H99        26.5913   24.3375   -2.2425 H         1 UNK         0.2993 
    100 H100       27.6341   26.0743   -4.1953 H         1 UNK         0.0949 
    101 H101       27.7227   28.5318   -2.3814 H         1 UNK         0.0767 
    102 H102       28.7326   28.1911   -3.7834 H         1 UNK         0.0767 
    103 H103       27.0256   28.5066   -3.9942 H         1 UNK         0.0767 
    104 H104       28.9976   25.1313   -2.7621 H         1 UNK         0.3013 
    105 H105       26.9110   27.9104    0.8488 H         1 UNK         0.3121 
    106 H106       26.2450   30.7153    1.5816 H         1 UNK         0.0774 
    107 H107       25.5805   30.8434   -0.8450 H         1 UNK         0.0815 
    108 H108       25.9861   29.1418   -1.0356 H         1 UNK         0.0815 
    109 H109       24.6848   29.6215    0.0432 H         1 UNK         0.0815 
    110 H110       28.6861   28.7343   -0.0760 H         1 UNK         0.2987 
    111 H111       30.3602   31.1168   -0.6926 H         1 UNK         0.0949 
    112 H112       31.7961   29.4512   -1.8840 H         1 UNK         0.0806 
    113 H113       30.6915   28.1640   -1.4287 H         1 UNK         0.0806 
    114 H114       30.1560   29.4720   -2.4837 H         1 UNK         0.0806 
    115 H115       29.7471   29.9347    2.0843 H         1 UNK         0.3010 
    116 H116       32.2472   28.9709    3.1749 H         1 UNK         0.0829 
    117 H117       30.0799   28.2541    4.1006 H         1 UNK         0.0813 
    118 H118       30.9577   29.1442    5.3298 H         1 UNK         0.0813 
    119 H119       29.6390   29.9214    4.4757 H         1 UNK         0.0813 
    120 H120       33.1037   31.1130    1.9121 H         1 UNK         0.3038 
    121 H121       33.1505   33.5646    3.4476 H         1 UNK         0.0769 
    122 H122       33.4775   33.5339    0.9834 H         1 UNK         0.0811 
    123 H123       34.8808   34.2345    1.7728 H         1 UNK         0.0811 
    124 H124       34.9537   32.5859    1.1650 H         1 UNK         0.0811 
    125 H125       35.0203   30.6141    3.5671 H         1 UNK         0.3204 
    126 H126       36.4000   31.4589    5.9575 H         1 UNK         0.0748 
    127 H127       38.0876   32.1118    4.1977 H         1 UNK         0.0771 
    128 H128       38.6519   30.7212    5.1088 H         1 UNK         0.0771 
    129 H129       37.9899   30.4989    3.4938 H         1 UNK         0.0771 
    130 H130       37.1410   29.5388    7.1062 H         1 UNK         0.2980 
    131 H131       36.1928   26.9458    6.1013 H         1 UNK         0.0545 
    132 H132       38.9427   28.2754    6.9162 H         1 UNK         0.3459 
    133 H133       39.6080   27.0009    7.9021 H         1 UNK         0.3459 
    134 H134       35.3407   27.3940    8.9268 H         1 UNK         0.0616 
    135 H135       34.5531   28.4816    7.8393 H         1 UNK         0.0616 
    136 H136       32.3124   27.9314    6.9317 H         1 UNK         0.0634 
    137 H137       33.3586   27.6794    5.5539 H         1 UNK         0.0634 
@<TRIPOS>BOND
     1    1    2 1    
     2    1   72 1    
     3    1   73 1    
     4    1   74 1    
     5    2    3 2    
     6    2    4 am   BACKBONE|DICT|INTERRES
     7    4    5 1    
     8    4   75 1    
     9    5    6 1    
    10    5   35 1    
    11    5   76 1    
    12    6    7 1    
    13    6   77 1    
    14    6   78 1    
    15    7    8 1    
    16    8    9 1    
    17    8   79 1    
    18    8   80 1    
    19    9   10 ar   
    20    9   14 ar   
    21   10   11 ar   
    22   10   81 1    
    23   11   12 ar   
    24   11   71 1    
    25   12   13 ar   
    26   12   82 1    
    27   13   14 ar   
    28   13   15 1    
    29   14   83 1    
    30   15   16 1    
    31   15   84 1    
    32   15   85 1    
    33   16   17 1    
    34   17   18 1    
    35   17   86 1    
    36   17   87 1    
    37   18   19 1    
    38   18   37 1    
    39   18   88 1    
    40   19   20 am   BACKBONE|DICT|INTERRES
    41   19   89 1    
    42   20   21 2    
    43   20   22 1    
    44   22   23 1    
    45   22   24 1    
    46   22   90 1    
    47   23   91 1    
    48   23   92 1    
    49   23   93 1    
    50   24   25 am   BACKBONE|DICT|INTERRES
    51   24   94 1    
    52   25   26 2    
    53   25   27 1    
    54   27   28 1    
    55   27   29 1    
    56   27   95 1    
    57   28   96 1    
    58   28   97 1    
    59   28   98 1    
    60   29   30 am   BACKBONE|DICT|INTERRES
    61   29   99 1    
    62   30   31 2    
    63   30   32 1    
    64   32   33 1    
    65   32   34 1    
    66   32  100 1    
    67   33  101 1    
    68   33  102 1    
    69   33  103 1    
    70   34   35 am   BACKBONE|DICT|INTERRES
    71   34  104 1    
    72   35   36 2    
    73   37   38 2    
    74   37   39 am   BACKBONE|DICT|INTERRES
    75   39   40 1    
    76   39  105 1    
    77   40   41 1    
    78   40   42 1    
    79   40  106 1    
    80   41  107 1    
    81   41  108 1    
    82   41  109 1    
    83   42   43 2    
    84   42   44 am   BACKBONE|DICT|INTERRES
    85   44   45 1    
    86   44  110 1    
    87   45   46 1    
    88   45   47 1    
    89   45  111 1    
    90   46  112 1    
    91   46  113 1    
    92   46  114 1    
    93   47   48 2    
    94   47   49 am   BACKBONE|DICT|INTERRES
    95   49   50 1    
    96   49  115 1    
    97   50   51 1    
    98   50   52 1    
    99   50  116 1    
   100   51  117 1    
   101   51  118 1    
   102   51  119 1    
   103   52   53 2    
   104   52   54 am   BACKBONE|DICT|INTERRES
   105   54   55 1    
   106   54  120 1    
   107   55   56 1    
   108   55   57 1    
   109   55  121 1    
   110   56  122 1    
   111   56  123 1    
   112   56  124 1    
   113   57   58 2    
   114   57   59 am   BACKBONE|DICT|INTERRES
   115   59   60 1    
   116   59  125 1    
   117   60   61 1    
   118   60   62 1    
   119   60  126 1    
   120   61  127 1    
   121   61  128 1    
   122   61  129 1    
   123   62   63 2    
   124   62   64 am   BACKBONE|DICT|INTERRES
   125   64   65 1    
   126   64  130 1    
   127   65   66 1    
   128   65   69 1    
   129   65  131 1    
   130   66   67 am   BACKBONE|DICT|INTERRES
   131   66   68 2    
   132   67  132 1    
   133   67  133 1    
   134   69   70 1    
   135   69  134 1    
   136   69  135 1    
   137   70   71 1    
   138   71  136 1    
   139   71  137 1    
@<TRIPOS>SUBSTRUCTURE
     1 UNK         1 GROUP             0       ****    0 ROOT    
