@<TRIPOS>MOLECULE
3R136
137   139    1
SMALL
USER_CHARGES


@<TRIPOS>ATOM
      1 CA         34.0843   23.9899   -2.1907 C.3       0 UNK        -0.1979 
      2 C          33.3270   25.2421   -1.7747 C.2       0 UNK         0.4864 
      3 O          33.7519   26.3511   -2.1021 O.2       0 UNK        -0.5359 
      4 N          32.2162   25.0723   -1.0477 N.am      1 UNK        -0.4318 
      5 CA         31.3193   26.1508   -0.6254 C.3       1 UNK         0.0824 
      6 C6         30.4991   25.7834    0.6415 C.3       12 UNK        -0.0944 
      7 S7         29.7002   24.1434    0.5931 S.3       12 UNK        -0.2672 
      8 C8         30.8418   23.1690    1.6284 C.3       12 UNK         0.0333 
      9 C9         30.7710   23.5694    3.0955 C.ar      12 UNK        -0.0807 
     10 C10        31.8253   24.2616    3.7022 C.ar      12 UNK        -0.0894 
     11 C11        31.7643   24.5999    5.0580 C.ar      12 UNK        -0.0804 
     12 C12        30.6305   24.2547    5.8029 C.ar      12 UNK        -0.0824 
     13 C13        29.5763   23.5509    5.2102 C.ar      12 UNK        -0.0762 
     14 C14        29.6566   23.2106    3.8567 C.ar      12 UNK        -0.0782 
     15 C15        28.3854   23.0928    6.0442 C.3       12 UNK         0.0230 
     16 S16        26.7815   23.5637    5.3164 S.3       12 UNK        -0.2608 
     17 C17        26.6890   25.3366    5.7283 C.3       12 UNK        -0.0989 
     18 CA         26.9994   26.2675    4.5296 C.3       5 UNK         0.0716 
     19 N          26.1745   25.9663    3.3506 N.am      5 UNK        -0.4135 
     20 C          26.3488   26.4985    2.1339 C.2       4 UNK         0.5031 
     21 O          27.2345   27.3087    1.8527 O.2       4 UNK        -0.5229 
     22 CA         25.3067   26.1316    1.0765 C.3       4 UNK         0.0329 
     23 CB         24.1079   27.0979    1.1564 C.3       4 UNK        -0.2001 
     24 N          25.9166   26.1937   -0.2503 N.am      4 UNK        -0.4303 
     25 C          25.4187   25.6111   -1.3477 C.2       3 UNK         0.5044 
     26 O          24.3742   24.9566   -1.3414 O.2       3 UNK        -0.5152 
     27 CA         26.2015   25.7263   -2.6726 C.3       3 UNK         0.0319 
     28 CB         25.2857   26.1419   -3.8438 C.3       3 UNK        -0.2001 
     29 N          27.4131   26.5559   -2.6369 N.am      3 UNK        -0.4354 
     30 C          27.5252   27.8839   -2.4953 C.2       2 UNK         0.4964 
     31 O          26.5696   28.6325   -2.2931 O.2       2 UNK        -0.5047 
     32 CA         28.9566   28.4584   -2.6023 C.3       2 UNK         0.0288 
     33 CB         29.0204   29.9852   -2.4165 C.3       2 UNK        -0.2113 
     34 N          29.8948   27.8373   -1.6631 N.am      2 UNK        -0.4145 
     35 C          30.4093   26.6063   -1.7766 C.2       1 UNK         0.5006 
     36 O          30.1535   25.8412   -2.7120 O.2       1 UNK        -0.5103 
     37 C          26.8644   27.7378    4.9795 C.2       5 UNK         0.5055 
     38 O          27.8262   28.2998    5.5011 O.2       5 UNK        -0.5220 
     39 N          25.6762   28.3286    4.7741 N.am      6 UNK        -0.4450 
     40 CA         25.3808   29.7342    5.0643 C.3       6 UNK         0.0367 
     41 CB         23.8591   29.9515    5.0437 C.3       6 UNK        -0.1929 
     42 C          26.0765   30.7008    4.0906 C.2       6 UNK         0.5070 
     43 O          26.4600   31.7968    4.4995 O.2       6 UNK        -0.5237 
     44 N          26.2332   30.2767    2.8284 N.am      7 UNK        -0.4739 
     45 CA         27.0151   30.9847    1.8118 C.3       7 UNK         0.0276 
     46 CB         26.5578   30.5335    0.4186 C.3       7 UNK        -0.1927 
     47 C          28.5245   30.7583    2.0189 C.2       7 UNK         0.5013 
     48 O          29.3011   31.7011    1.8615 O.2       7 UNK        -0.5193 
     49 N          28.8755   29.5342    2.4421 N.am      8 UNK        -0.4253 
     50 CA         30.1661   29.0725    2.9574 C.3       8 UNK         0.0242 
     51 CB         30.6203   29.9499    4.1456 C.3       8 UNK        -0.2000 
     52 C          31.2611   28.9341    1.8870 C.2       8 UNK         0.4948 
     53 O          31.0342   29.1984    0.7023 O.2       8 UNK        -0.5275 
     54 N          32.4228   28.4565    2.3464 N.am      9 UNK        -0.4246 
     55 CA         33.6858   28.3704    1.6152 C.3       9 UNK         0.0261 
     56 CB         34.1746   26.9031    1.6340 C.3       9 UNK        -0.1959 
     57 C          34.6752   29.3345    2.2958 C.2       9 UNK         0.5033 
     58 O          34.2695   30.4107    2.7421 O.2       9 UNK        -0.5390 
     59 N          35.9379   28.9091    2.4543 N.am      10 UNK        -0.4215 
     60 CA         36.9536   29.5711    3.2861 C.3       10 UNK         0.0240 
     61 CB         38.2972   28.8426    3.1198 C.3       10 UNK        -0.1982 
     62 C          36.5675   29.6617    4.7786 C.2       10 UNK         0.4970 
     63 O          37.0988   30.5165    5.4879 O.2       10 UNK        -0.4916 
     64 N          35.6324   28.8049    5.2124 N.am      11 UNK        -0.4279 
     65 CA         34.9289   28.8762    6.4985 C.3       11 UNK         0.1003 
     66 C          34.0132   30.1245    6.6883 C.2       11 UNK         0.5709 
     67 N          33.7020   30.8981    5.6532 N.am      11 UNK        -0.7358 
     68 O          33.5892   30.4035    7.8073 O.2       11 UNK        -0.4999 
     69 C69        34.1769   27.5510    6.8001 C.3       12 UNK        -0.0954 
     70 S70        32.9178   27.0835    5.5551 S.3       12 UNK        -0.2268 
     71 C71        32.9494   25.2748    5.7365 C.3       12 UNK         0.0203 
     72 H72        33.6079   23.0828   -1.8191 H         1 UNK         0.0888 
     73 H73        35.1022   24.0212   -1.8031 H         1 UNK         0.0888 
     74 H74        34.1344   23.9260   -3.2773 H         1 UNK         0.0888 
     75 H75        31.8765   24.1403   -0.8601 H         1 UNK         0.3017 
     76 H76        31.9423   27.0110   -0.3791 H         1 UNK         0.0873 
     77 H77        29.7219   26.5250    0.8360 H         1 UNK         0.0745 
     78 H78        31.1470   25.8351    1.5144 H         1 UNK         0.0745 
     79 H79        30.5859   22.1127    1.5331 H         1 UNK         0.0705 
     80 H80        31.8594   23.2701    1.2486 H         1 UNK         0.0705 
     81 H81        32.7027   24.5212    3.1262 H         1 UNK         0.1334 
     82 H82        30.5866   24.5042    6.8544 H         1 UNK         0.1417 
     83 H83        28.8500   22.6585    3.3933 H         1 UNK         0.1562 
     84 H84        28.4473   23.4714    7.0657 H         1 UNK         0.0748 
     85 H85        28.4214   22.0054    6.1223 H         1 UNK         0.0748 
     86 H86        25.6850   25.5286    6.1126 H         1 UNK         0.0940 
     87 H87        27.3686   25.5477    6.5567 H         1 UNK         0.0940 
     88 H88        28.0422   26.1128    4.2415 H         1 UNK         0.0703 
     89 H89        25.4335   25.2948    3.4925 H         1 UNK         0.3081 
     90 H90        24.9694   25.1098    1.2639 H         1 UNK         0.0719 
     91 H91        24.4043   28.1242    0.9359 H         1 UNK         0.0809 
     92 H92        23.3251   26.8215    0.4501 H         1 UNK         0.0809 
     93 H93        23.6565   27.0906    2.1492 H         1 UNK         0.0809 
     94 H94        26.7885   26.7046   -0.2991 H         1 UNK         0.2990 
     95 H95        26.5558   24.7165   -2.8844 H         1 UNK         0.0690 
     96 H96        25.8345   26.1761   -4.7848 H         1 UNK         0.0788 
     97 H97        24.8376   27.1224   -3.6797 H         1 UNK         0.0788 
     98 H98        24.4681   25.4320   -3.9748 H         1 UNK         0.0788 
     99 H99        28.2867   26.0493   -2.7661 H         1 UNK         0.2993 
    100 H100       29.2945   28.2423   -3.6183 H         1 UNK         0.0949 
    101 H101       28.2850   30.4978   -3.0382 H         1 UNK         0.0767 
    102 H102       28.8411   30.2689   -1.3804 H         1 UNK         0.0767 
    103 H103       30.0011   30.3714   -2.6950 H         1 UNK         0.0767 
    104 H104       30.1625   28.3966   -0.8552 H         1 UNK         0.3013 
    105 H105       24.9302   27.7799    4.3732 H         1 UNK         0.3121 
    106 H106       25.7450   29.9585    6.0695 H         1 UNK         0.0774 
    107 H107       23.3580   29.3249    5.7817 H         1 UNK         0.0815 
    108 H108       23.4301   29.7299    4.0656 H         1 UNK         0.0815 
    109 H109       23.6115   30.9874    5.2799 H         1 UNK         0.0815 
    110 H110       25.9081   29.3526    2.5873 H         1 UNK         0.2987 
    111 H111       26.8183   32.0555    1.9029 H         1 UNK         0.0949 
    112 H112       25.4779   30.6243    0.3022 H         1 UNK         0.0806 
    113 H113       26.8293   29.4964    0.2208 H         1 UNK         0.0806 
    114 H114       27.0126   31.1511   -0.3553 H         1 UNK         0.0806 
    115 H115       28.1614   28.8110    2.4005 H         1 UNK         0.3010 
    116 H116       29.9760   28.0676    3.3390 H         1 UNK         0.0829 
    117 H117       29.8044   30.1209    4.8480 H         1 UNK         0.0813 
    118 H118       31.4236   29.4779    4.7085 H         1 UNK         0.0813 
    119 H119       30.9860   30.9227    3.8148 H         1 UNK         0.0813 
    120 H120       32.4922   28.2852    3.3405 H         1 UNK         0.3038 
    121 H121       33.5572   28.6971    0.5813 H         1 UNK         0.0769 
    122 H122       34.4437   26.5710    2.6378 H         1 UNK         0.0811 
    123 H123       35.0415   26.7640    0.9867 H         1 UNK         0.0811 
    124 H124       33.4121   26.2186    1.2733 H         1 UNK         0.0811 
    125 H125       36.1973   28.0208    2.0494 H         1 UNK         0.3204 
    126 H126       37.0674   30.5933    2.9194 H         1 UNK         0.0748 
    127 H127       38.6240   28.8434    2.0797 H         1 UNK         0.0771 
    128 H128       39.0803   29.3303    3.7026 H         1 UNK         0.0771 
    129 H129       38.2401   27.8061    3.4548 H         1 UNK         0.0771 
    130 H130       35.2691   28.1267    4.5624 H         1 UNK         0.2980 
    131 H131       35.7031   28.9768    7.2615 H         1 UNK         0.0545 
    132 H132       33.1195   31.7044    5.8087 H         1 UNK         0.3459 
    133 H133       34.0292   30.6900    4.7164 H         1 UNK         0.3459 
    134 H134       34.9070   26.7435    6.8740 H         1 UNK         0.0616 
    135 H135       33.6936   27.5964    7.7778 H         1 UNK         0.0616 
    136 H136       32.9586   25.0222    6.7981 H         1 UNK         0.0634 
    137 H137       33.8835   24.8911    5.3233 H         1 UNK         0.0634 
@<TRIPOS>BOND
     1    1    2 1    
     2    1   72 1    
     3    1   73 1    
     4    1   74 1    
     5    2    3 2    
     6    2    4 am   BACKBONE|DICT|INTERRES
     7    4    5 1    
     8    4   75 1    
     9    5    6 1    
    10    5   35 1    
    11    5   76 1    
    12    6    7 1    
    13    6   77 1    
    14    6   78 1    
    15    7    8 1    
    16    8    9 1    
    17    8   79 1    
    18    8   80 1    
    19    9   10 ar   
    20    9   14 ar   
    21   10   11 ar   
    22   10   81 1    
    23   11   12 ar   
    24   11   71 1    
    25   12   13 ar   
    26   12   82 1    
    27   13   14 ar   
    28   13   15 1    
    29   14   83 1    
    30   15   16 1    
    31   15   84 1    
    32   15   85 1    
    33   16   17 1    
    34   17   18 1    
    35   17   86 1    
    36   17   87 1    
    37   18   19 1    
    38   18   37 1    
    39   18   88 1    
    40   19   20 am   BACKBONE|DICT|INTERRES
    41   19   89 1    
    42   20   21 2    
    43   20   22 1    
    44   22   23 1    
    45   22   24 1    
    46   22   90 1    
    47   23   91 1    
    48   23   92 1    
    49   23   93 1    
    50   24   25 am   BACKBONE|DICT|INTERRES
    51   24   94 1    
    52   25   26 2    
    53   25   27 1    
    54   27   28 1    
    55   27   29 1    
    56   27   95 1    
    57   28   96 1    
    58   28   97 1    
    59   28   98 1    
    60   29   30 am   BACKBONE|DICT|INTERRES
    61   29   99 1    
    62   30   31 2    
    63   30   32 1    
    64   32   33 1    
    65   32   34 1    
    66   32  100 1    
    67   33  101 1    
    68   33  102 1    
    69   33  103 1    
    70   34   35 am   BACKBONE|DICT|INTERRES
    71   34  104 1    
    72   35   36 2    
    73   37   38 2    
    74   37   39 am   BACKBONE|DICT|INTERRES
    75   39   40 1    
    76   39  105 1    
    77   40   41 1    
    78   40   42 1    
    79   40  106 1    
    80   41  107 1    
    81   41  108 1    
    82   41  109 1    
    83   42   43 2    
    84   42   44 am   BACKBONE|DICT|INTERRES
    85   44   45 1    
    86   44  110 1    
    87   45   46 1    
    88   45   47 1    
    89   45  111 1    
    90   46  112 1    
    91   46  113 1    
    92   46  114 1    
    93   47   48 2    
    94   47   49 am   BACKBONE|DICT|INTERRES
    95   49   50 1    
    96   49  115 1    
    97   50   51 1    
    98   50   52 1    
    99   50  116 1    
   100   51  117 1    
   101   51  118 1    
   102   51  119 1    
   103   52   53 2    
   104   52   54 am   BACKBONE|DICT|INTERRES
   105   54   55 1    
   106   54  120 1    
   107   55   56 1    
   108   55   57 1    
   109   55  121 1    
   110   56  122 1    
   111   56  123 1    
   112   56  124 1    
   113   57   58 2    
   114   57   59 am   BACKBONE|DICT|INTERRES
   115   59   60 1    
   116   59  125 1    
   117   60   61 1    
   118   60   62 1    
   119   60  126 1    
   120   61  127 1    
   121   61  128 1    
   122   61  129 1    
   123   62   63 2    
   124   62   64 am   BACKBONE|DICT|INTERRES
   125   64   65 1    
   126   64  130 1    
   127   65   66 1    
   128   65   69 1    
   129   65  131 1    
   130   66   67 am   BACKBONE|DICT|INTERRES
   131   66   68 2    
   132   67  132 1    
   133   67  133 1    
   134   69   70 1    
   135   69  134 1    
   136   69  135 1    
   137   70   71 1    
   138   71  136 1    
   139   71  137 1    
@<TRIPOS>SUBSTRUCTURE
     1 UNK         1 GROUP             0       ****    0 ROOT    
