@<TRIPOS>MOLECULE
3R136
137   139    1
SMALL
USER_CHARGES


@<TRIPOS>ATOM
      1 CA         29.1180   18.4327   -2.3021 C.3       0 UNK        -0.1979 
      2 C          29.0846   19.9243   -2.0014 C.2       0 UNK         0.4864 
      3 O          29.2982   20.7315   -2.9075 O.2       0 UNK        -0.5359 
      4 N          28.8269   20.2857   -0.7378 N.am      1 UNK        -0.4318 
      5 CA         28.7074   21.6655   -0.2591 C.3       1 UNK         0.0824 
      6 C6         29.4027   21.8628    1.1148 C.3       12 UNK        -0.0944 
      7 S7         31.2164   21.7709    0.9518 S.3       12 UNK        -0.2672 
      8 C8         31.7702   22.2587    2.6170 C.3       12 UNK         0.0333 
      9 C9         31.3963   23.6952    2.9574 C.ar      12 UNK        -0.0807 
     10 C10        32.1323   24.7632    2.4337 C.ar      12 UNK        -0.0894 
     11 C11        31.8013   26.0818    2.7633 C.ar      12 UNK        -0.0804 
     12 C12        30.7269   26.3246    3.6233 C.ar      12 UNK        -0.0824 
     13 C13        29.9575   25.2689    4.1213 C.ar      12 UNK        -0.0762 
     14 C14        30.3109   23.9557    3.7995 C.ar      12 UNK        -0.0782 
     15 C15        28.7380   25.5305    4.9961 C.3       12 UNK         0.0230 
     16 S16        27.1897   25.2731    4.0634 S.3       12 UNK        -0.2608 
     17 C17        26.6255   26.9787    3.7203 C.3       12 UNK        -0.0989 
     18 CA         27.5319   27.7463    2.7298 C.3       5 UNK         0.0716 
     19 N          27.7710   27.0232    1.4763 N.am      5 UNK        -0.4135 
     20 C          28.7837   27.2804    0.6329 C.2       4 UNK         0.5031 
     21 O          29.6235   28.1551    0.8392 O.2       4 UNK        -0.5229 
     22 CA         28.8535   26.4859   -0.6834 C.3       4 UNK         0.0329 
     23 CB         29.9185   25.3838   -0.5789 C.3       4 UNK        -0.2001 
     24 N          27.5758   25.8967   -1.0932 N.am      4 UNK        -0.4303 
     25 C          26.4567   26.5813   -1.3768 C.2       3 UNK         0.5044 
     26 O          26.3848   27.8107   -1.3689 O.2       3 UNK        -0.5152 
     27 CA         25.1921   25.7444   -1.6433 C.3       3 UNK         0.0319 
     28 CB         25.0536   25.4336   -3.1414 C.3       3 UNK        -0.2001 
     29 N          25.1752   24.4908   -0.8803 N.am      3 UNK        -0.4354 
     30 C          25.1349   24.4082    0.4567 C.2       2 UNK         0.4964 
     31 O          25.0388   25.3889    1.1927 O.2       2 UNK        -0.5047 
     32 CA         25.3019   23.0118    1.0794 C.3       2 UNK         0.0288 
     33 CB         24.1871   22.0378    0.6442 C.3       2 UNK        -0.2113 
     34 N          26.6466   22.4544    0.8639 N.am      2 UNK        -0.4145 
     35 C          27.2213   22.0838   -0.2927 C.2       1 UNK         0.5006 
     36 O          26.6334   22.1021   -1.3762 O.2       1 UNK        -0.5103 
     37 C          27.0827   29.2101    2.5275 C.2       5 UNK         0.5055 
     38 O          27.0580   29.9624    3.5014 O.2       5 UNK        -0.5220 
     39 N          26.8369   29.6349    1.2779 N.am      6 UNK        -0.4450 
     40 CA         26.7964   31.0479    0.8882 C.3       6 UNK         0.0367 
     41 CB         26.3357   31.1550   -0.5737 C.3       6 UNK        -0.1929 
     42 C          28.1518   31.7658    1.0793 C.2       6 UNK         0.5070 
     43 O          28.1639   32.9837    1.2555 O.2       6 UNK        -0.5237 
     44 N          29.2584   31.0068    1.0678 N.am      7 UNK        -0.4739 
     45 CA         30.6242   31.4714    1.3123 C.3       7 UNK         0.0276 
     46 CB         31.5269   30.9900    0.1615 C.3       7 UNK        -0.1927 
     47 C          31.1517   30.9922    2.6783 C.2       7 UNK         0.5013 
     48 O          32.3683   30.9200    2.8639 O.2       7 UNK        -0.5193 
     49 N          30.2572   30.6936    3.6361 N.am      8 UNK        -0.4253 
     50 CA         30.6071   30.2483    4.9945 C.3       8 UNK         0.0242 
     51 CB         29.3349   29.9211    5.7907 C.3       8 UNK        -0.2000 
     52 C          31.4948   31.2302    5.7807 C.2       8 UNK         0.4948 
     53 O          32.2611   30.7890    6.6354 O.2       8 UNK        -0.5275 
     54 N          31.4258   32.5261    5.4449 N.am      9 UNK        -0.4246 
     55 CA         32.3216   33.5681    5.9523 C.3       9 UNK         0.0261 
     56 CB         31.8042   34.9431    5.4995 C.3       9 UNK        -0.1959 
     57 C          33.7938   33.3814    5.5310 C.2       9 UNK         0.5033 
     58 O          34.6781   33.8458    6.2521 O.2       9 UNK        -0.5390 
     59 N          34.0367   32.7160    4.3914 N.am      10 UNK        -0.4215 
     60 CA         35.3729   32.3597    3.9151 C.3       10 UNK         0.0240 
     61 CB         35.3986   32.3536    2.3768 C.3       10 UNK        -0.1982 
     62 C          35.8146   31.0000    4.4757 C.2       10 UNK         0.4970 
     63 O          36.9629   30.8780    4.9043 O.2       10 UNK        -0.4916 
     64 N          34.9105   30.0090    4.4633 N.am      11 UNK        -0.4279 
     65 CA         35.1723   28.6575    4.9890 C.3       11 UNK         0.1003 
     66 C          35.3244   28.5846    6.5347 C.2       11 UNK         0.5709 
     67 N          34.6496   29.4222    7.3107 N.am      11 UNK        -0.7358 
     68 O          36.0808   27.7569    7.0375 O.2       11 UNK        -0.4999 
     69 C69        34.1400   27.6183    4.4835 C.3       12 UNK        -0.0954 
     70 S70        34.3038   27.3129    2.6940 S.3       12 UNK        -0.2268 
     71 C71        32.5679   27.2503    2.1557 C.3       12 UNK         0.0203 
     72 H72        28.3638   18.1838   -3.0482 H         1 UNK         0.0888 
     73 H73        30.0941   18.1515   -2.6966 H         1 UNK         0.0888 
     74 H74        28.9265   17.8320   -1.4131 H         1 UNK         0.0888 
     75 H75        28.6479   19.5687   -0.0493 H         1 UNK         0.3017 
     76 H76        29.2035   22.3347   -0.9657 H         1 UNK         0.0873 
     77 H77        29.0701   21.1192    1.8417 H         1 UNK         0.0745 
     78 H78        29.1650   22.8418    1.5306 H         1 UNK         0.0745 
     79 H79        31.3544   21.5661    3.3505 H         1 UNK         0.0705 
     80 H80        32.8538   22.1456    2.6735 H         1 UNK         0.0705 
     81 H81        32.9614   24.5691    1.7669 H         1 UNK         0.1334 
     82 H82        30.4791   27.3423    3.8813 H         1 UNK         0.1417 
     83 H83        29.7257   23.1356    4.1932 H         1 UNK         0.1562 
     84 H84        28.7659   26.5354    5.4193 H         1 UNK         0.0748 
     85 H85        28.7527   24.8455    5.8451 H         1 UNK         0.0748 
     86 H86        26.5559   27.5117    4.6708 H         1 UNK         0.0940 
     87 H87        25.6064   26.9251    3.3335 H         1 UNK         0.0940 
     88 H88        28.4985   27.8459    3.2153 H         1 UNK         0.0703 
     89 H89        27.0913   26.3106    1.2441 H         1 UNK         0.3081 
     90 H90        29.1575   27.1833   -1.4667 H         1 UNK         0.0719 
     91 H91        29.7012   24.6905    0.2324 H         1 UNK         0.0809 
     92 H92        30.0031   24.8138   -1.5041 H         1 UNK         0.0809 
     93 H93        30.9002   25.8132   -0.3749 H         1 UNK         0.0809 
     94 H94        27.5323   24.8903   -1.1429 H         1 UNK         0.2990 
     95 H95        24.3306   26.3394   -1.3328 H         1 UNK         0.0690 
     96 H96        24.1211   24.9098   -3.3525 H         1 UNK         0.0788 
     97 H97        25.8756   24.8150   -3.5043 H         1 UNK         0.0788 
     98 H98        25.0493   26.3513   -3.7315 H         1 UNK         0.0788 
     99 H99        25.3364   23.6298   -1.3940 H         1 UNK         0.2993 
    100 H100       25.2062   23.1450    2.1588 H         1 UNK         0.0949 
    101 H101       23.2037   22.4440    0.8846 H         1 UNK         0.0767 
    102 H102       24.1989   21.8373   -0.4272 H         1 UNK         0.0767 
    103 H103       24.2768   21.0825    1.1614 H         1 UNK         0.0767 
    104 H104       27.2160   22.4124    1.6976 H         1 UNK         0.3013 
    105 H105       26.8406   28.9599    0.5221 H         1 UNK         0.3121 
    106 H106       26.0626   31.5530    1.5198 H         1 UNK         0.0774 
    107 H107       27.0305   30.6586   -1.2526 H         1 UNK         0.0815 
    108 H108       26.2628   32.1979   -0.8852 H         1 UNK         0.0815 
    109 H109       25.3527   30.7051   -0.7145 H         1 UNK         0.0815 
    110 H110       29.1719   30.0021    0.9300 H         1 UNK         0.2987 
    111 H111       30.6551   32.5626    1.3303 H         1 UNK         0.0949 
    112 H112       31.6035   29.9021    0.1381 H         1 UNK         0.0806 
    113 H113       31.1471   31.3204   -0.8053 H         1 UNK         0.0806 
    114 H114       32.5385   31.3854    0.2621 H         1 UNK         0.0806 
    115 H115       29.2718   30.7786    3.4223 H         1 UNK         0.3010 
    116 H116       31.1853   29.3294    4.8926 H         1 UNK         0.0829 
    117 H117       28.7934   29.0856    5.3500 H         1 UNK         0.0813 
    118 H118       29.5750   29.6365    6.8163 H         1 UNK         0.0813 
    119 H119       28.6570   30.7742    5.8383 H         1 UNK         0.0813 
    120 H120       30.7550   32.8023    4.7430 H         1 UNK         0.3038 
    121 H121       32.2885   33.5317    7.0434 H         1 UNK         0.0769 
    122 H122       31.7943   35.0339    4.4125 H         1 UNK         0.0811 
    123 H123       32.4358   35.7439    5.8870 H         1 UNK         0.0811 
    124 H124       30.7930   35.1271    5.8628 H         1 UNK         0.0811 
    125 H125       33.2598   32.3147    3.8748 H         1 UNK         0.3204 
    126 H126       36.0898   33.1114    4.2530 H         1 UNK         0.0748 
    127 H127       36.4045   32.1493    2.0077 H         1 UNK         0.0771 
    128 H128       34.7402   31.5928    1.9569 H         1 UNK         0.0771 
    129 H129       35.0950   33.3191    1.9720 H         1 UNK         0.0771 
    130 H130       33.9988   30.1741    4.0555 H         1 UNK         0.2980 
    131 H131       36.1438   28.3537    4.5929 H         1 UNK         0.0545 
    132 H132       34.7694   29.3656    8.3088 H         1 UNK         0.3459 
    133 H133       33.9383   30.0395    6.9277 H         1 UNK         0.3459 
    134 H134       34.2751   26.6561    4.9814 H         1 UNK         0.0616 
    135 H135       33.1266   27.9445    4.7197 H         1 UNK         0.0616 
    136 H136       32.0872   28.1987    2.3952 H         1 UNK         0.0634 
    137 H137       32.5403   27.1650    1.0689 H         1 UNK         0.0634 
@<TRIPOS>BOND
     1    1    2 1    
     2    1   72 1    
     3    1   73 1    
     4    1   74 1    
     5    2    3 2    
     6    2    4 am   BACKBONE|DICT|INTERRES
     7    4    5 1    
     8    4   75 1    
     9    5    6 1    
    10    5   35 1    
    11    5   76 1    
    12    6    7 1    
    13    6   77 1    
    14    6   78 1    
    15    7    8 1    
    16    8    9 1    
    17    8   79 1    
    18    8   80 1    
    19    9   10 ar   
    20    9   14 ar   
    21   10   11 ar   
    22   10   81 1    
    23   11   12 ar   
    24   11   71 1    
    25   12   13 ar   
    26   12   82 1    
    27   13   14 ar   
    28   13   15 1    
    29   14   83 1    
    30   15   16 1    
    31   15   84 1    
    32   15   85 1    
    33   16   17 1    
    34   17   18 1    
    35   17   86 1    
    36   17   87 1    
    37   18   19 1    
    38   18   37 1    
    39   18   88 1    
    40   19   20 am   BACKBONE|DICT|INTERRES
    41   19   89 1    
    42   20   21 2    
    43   20   22 1    
    44   22   23 1    
    45   22   24 1    
    46   22   90 1    
    47   23   91 1    
    48   23   92 1    
    49   23   93 1    
    50   24   25 am   BACKBONE|DICT|INTERRES
    51   24   94 1    
    52   25   26 2    
    53   25   27 1    
    54   27   28 1    
    55   27   29 1    
    56   27   95 1    
    57   28   96 1    
    58   28   97 1    
    59   28   98 1    
    60   29   30 am   BACKBONE|DICT|INTERRES
    61   29   99 1    
    62   30   31 2    
    63   30   32 1    
    64   32   33 1    
    65   32   34 1    
    66   32  100 1    
    67   33  101 1    
    68   33  102 1    
    69   33  103 1    
    70   34   35 am   BACKBONE|DICT|INTERRES
    71   34  104 1    
    72   35   36 2    
    73   37   38 2    
    74   37   39 am   BACKBONE|DICT|INTERRES
    75   39   40 1    
    76   39  105 1    
    77   40   41 1    
    78   40   42 1    
    79   40  106 1    
    80   41  107 1    
    81   41  108 1    
    82   41  109 1    
    83   42   43 2    
    84   42   44 am   BACKBONE|DICT|INTERRES
    85   44   45 1    
    86   44  110 1    
    87   45   46 1    
    88   45   47 1    
    89   45  111 1    
    90   46  112 1    
    91   46  113 1    
    92   46  114 1    
    93   47   48 2    
    94   47   49 am   BACKBONE|DICT|INTERRES
    95   49   50 1    
    96   49  115 1    
    97   50   51 1    
    98   50   52 1    
    99   50  116 1    
   100   51  117 1    
   101   51  118 1    
   102   51  119 1    
   103   52   53 2    
   104   52   54 am   BACKBONE|DICT|INTERRES
   105   54   55 1    
   106   54  120 1    
   107   55   56 1    
   108   55   57 1    
   109   55  121 1    
   110   56  122 1    
   111   56  123 1    
   112   56  124 1    
   113   57   58 2    
   114   57   59 am   BACKBONE|DICT|INTERRES
   115   59   60 1    
   116   59  125 1    
   117   60   61 1    
   118   60   62 1    
   119   60  126 1    
   120   61  127 1    
   121   61  128 1    
   122   61  129 1    
   123   62   63 2    
   124   62   64 am   BACKBONE|DICT|INTERRES
   125   64   65 1    
   126   64  130 1    
   127   65   66 1    
   128   65   69 1    
   129   65  131 1    
   130   66   67 am   BACKBONE|DICT|INTERRES
   131   66   68 2    
   132   67  132 1    
   133   67  133 1    
   134   69   70 1    
   135   69  134 1    
   136   69  135 1    
   137   70   71 1    
   138   71  136 1    
   139   71  137 1    
@<TRIPOS>SUBSTRUCTURE
     1 UNK         1 GROUP             0       ****    0 ROOT    
