@<TRIPOS>MOLECULE
3R136
137   139    1
SMALL
USER_CHARGES


@<TRIPOS>ATOM
      1 CA         34.8725   25.1374    0.0354 C.3       0 UNK        -0.1979 
      2 C          33.6695   26.0110    0.3555 C.2       0 UNK         0.4864 
      3 O          33.6704   26.6919    1.3798 O.2       0 UNK        -0.5359 
      4 N          32.6457   25.9836   -0.5033 N.am      1 UNK        -0.4318 
      5 CA         31.4038   26.7478   -0.3959 C.3       1 UNK         0.0824 
      6 C6         30.5138   26.3230    0.8098 C.3       12 UNK        -0.0944 
      7 S7         30.0139   24.5633    0.8056 S.3       12 UNK        -0.2672 
      8 C8         31.0629   23.8763    2.1278 C.3       12 UNK         0.0333 
      9 C9         30.5897   24.3258    3.5006 C.ar      12 UNK        -0.0807 
     10 C10        31.3289   25.2476    4.2492 C.ar      12 UNK        -0.0894 
     11 C11        30.8668   25.6766    5.4984 C.ar      12 UNK        -0.0804 
     12 C12        29.6557   25.1798    5.9929 C.ar      12 UNK        -0.0824 
     13 C13        28.9135   24.2539    5.2521 C.ar      12 UNK        -0.0762 
     14 C14        29.3930   23.8225    4.0140 C.ar      12 UNK        -0.0782 
     15 C15        27.5811   23.7294    5.7661 C.3       12 UNK         0.0230 
     16 S16        26.1880   24.3520    4.7681 S.3       12 UNK        -0.2608 
     17 C17        26.2344   26.1322    5.1608 C.3       12 UNK        -0.0989 
     18 CA         26.9041   26.9931    4.0488 C.3       5 UNK         0.0716 
     19 N          26.2622   26.8754    2.7264 N.am      5 UNK        -0.4135 
     20 C          25.0039   27.2270    2.4194 C.2       4 UNK         0.5031 
     21 O          24.2037   27.6783    3.2399 O.2       4 UNK        -0.5229 
     22 CA         24.5541   27.1147    0.9484 C.3       4 UNK         0.0329 
     23 CB         24.2289   28.5079    0.3830 C.3       4 UNK        -0.2001 
     24 N          25.5012   26.4575    0.0407 N.am      4 UNK        -0.4303 
     25 C          25.7395   25.1422   -0.0120 C.2       3 UNK         0.5044 
     26 O          25.2758   24.3423    0.8002 O.2       3 UNK        -0.5152 
     27 CA         26.6225   24.6045   -1.1583 C.3       3 UNK         0.0319 
     28 CB         25.7475   23.9730   -2.2587 C.3       3 UNK        -0.2001 
     29 N          27.5987   25.5373   -1.7480 N.am      3 UNK        -0.4354 
     30 C          27.3988   26.6719   -2.4383 C.2       2 UNK         0.4964 
     31 O          26.2913   27.1853   -2.5998 O.2       2 UNK        -0.5047 
     32 CA         28.6589   27.3581   -3.0048 C.3       2 UNK         0.0288 
     33 CB         28.3718   28.7413   -3.6173 C.3       2 UNK        -0.2113 
     34 N          29.6681   27.4956   -1.9536 N.am      2 UNK        -0.4145 
     35 C          30.6463   26.6111   -1.7255 C.2       1 UNK         0.5006 
     36 O          30.9071   25.6710   -2.4831 O.2       1 UNK        -0.5103 
     37 C          27.0842   28.4660    4.4947 C.2       5 UNK         0.5055 
     38 O          27.1558   28.7406    5.6943 O.2       5 UNK        -0.5220 
     39 N          27.1682   29.3902    3.5293 N.am      6 UNK        -0.4450 
     40 CA         27.3653   30.8216    3.7501 C.3       6 UNK         0.0367 
     41 CB         26.0407   31.5101    4.1306 C.3       6 UNK        -0.1929 
     42 C          27.9905   31.4462    2.5017 C.2       6 UNK         0.5070 
     43 O          29.0544   32.0586    2.5970 O.2       6 UNK        -0.5237 
     44 N          27.3408   31.2402    1.3458 N.am      7 UNK        -0.4739 
     45 CA         27.8012   31.6824    0.0272 C.3       7 UNK         0.0276 
     46 CB         26.7513   31.3068   -1.0313 C.3       7 UNK        -0.1927 
     47 C          29.1751   31.0847   -0.3190 C.2       7 UNK         0.5013 
     48 O          29.2786   29.8673   -0.4930 O.2       7 UNK        -0.5193 
     49 N          30.1987   31.9520   -0.3490 N.am      8 UNK        -0.4253 
     50 CA         31.6190   31.6546   -0.5857 C.3       8 UNK         0.0242 
     51 CB         31.8280   31.2165   -2.0522 C.3       8 UNK        -0.2000 
     52 C          32.2332   30.6465    0.4110 C.2       8 UNK         0.4948 
     53 O          33.2307   30.0056    0.0764 O.2       8 UNK        -0.5275 
     54 N          31.6160   30.4843    1.5899 N.am      9 UNK        -0.4246 
     55 CA         31.9139   29.3954    2.5149 C.3       9 UNK         0.0261 
     56 CB         30.6907   29.1300    3.4031 C.3       9 UNK        -0.1959 
     57 C          33.1694   29.6466    3.3572 C.2       9 UNK         0.5033 
     58 O          33.2849   30.7050    3.9798 O.2       9 UNK        -0.5390 
     59 N          34.0481   28.6411    3.4052 N.am      10 UNK        -0.4215 
     60 CA         35.1940   28.5546    4.3031 C.3       10 UNK         0.0240 
     61 CB         36.4853   28.8671    3.5284 C.3       10 UNK        -0.1982 
     62 C          35.2193   27.1366    4.8836 C.2       10 UNK         0.4970 
     63 O          35.1980   26.1699    4.1199 O.2       10 UNK        -0.4916 
     64 N          35.2540   27.0328    6.2137 N.am      11 UNK        -0.4279 
     65 CA         35.2565   25.7703    6.9617 C.3       11 UNK         0.1003 
     66 C          35.8336   25.9647    8.3898 C.2       11 UNK         0.5709 
     67 N          36.0839   24.8820    9.1135 N.am      11 UNK        -0.7358 
     68 O          36.0620   27.0843    8.8478 O.2       11 UNK        -0.4999 
     69 C69        33.8756   25.0485    6.9346 C.3       12 UNK        -0.0954 
     70 S70        32.5145   25.9774    7.7266 S.3       12 UNK        -0.2268 
     71 C71        31.6523   26.7068    6.2987 C.3       12 UNK         0.0203 
     72 H72        35.7573   25.7576   -0.1050 H         1 UNK         0.0888 
     73 H73        35.0646   24.4518    0.8604 H         1 UNK         0.0888 
     74 H74        34.7206   24.5483   -0.8689 H         1 UNK         0.0888 
     75 H75        32.6788   25.4047   -1.3343 H         1 UNK         0.3017 
     76 H76        31.6716   27.7994   -0.2904 H         1 UNK         0.0873 
     77 H77        31.0289   26.5342    1.7444 H         1 UNK         0.0745 
     78 H78        29.6090   26.9323    0.8459 H         1 UNK         0.0745 
     79 H79        31.0282   22.7873    2.0748 H         1 UNK         0.0705 
     80 H80        32.1031   24.1567    1.9611 H         1 UNK         0.0705 
     81 H81        32.2575   25.6385    3.8538 H         1 UNK         0.1334 
     82 H82        29.2905   25.5219    6.9517 H         1 UNK         0.1417 
     83 H83        28.8150   23.1170    3.4321 H         1 UNK         0.1562 
     84 H84        27.4300   23.9959    6.8134 H         1 UNK         0.0748 
     85 H85        27.5852   22.6393    5.7256 H         1 UNK         0.0748 
     86 H86        26.7551   26.2558    6.1120 H         1 UNK         0.0940 
     87 H87        25.2128   26.4679    5.3445 H         1 UNK         0.0940 
     88 H88        27.9191   26.6171    3.9125 H         1 UNK         0.0703 
     89 H89        26.8307   26.4800    1.9922 H         1 UNK         0.3081 
     90 H90        23.6324   26.5288    0.9473 H         1 UNK         0.0719 
     91 H91        23.4623   29.0064    0.9781 H         1 UNK         0.0809 
     92 H92        25.1068   29.1522    0.3777 H         1 UNK         0.0809 
     93 H93        23.8517   28.4455   -0.6381 H         1 UNK         0.0809 
     94 H94        25.8605   27.0123   -0.7303 H         1 UNK         0.2990 
     95 H95        27.2214   23.8044   -0.7199 H         1 UNK         0.0690 
     96 H96        26.3574   23.4952   -3.0253 H         1 UNK         0.0788 
     97 H97        25.1125   24.7129   -2.7472 H         1 UNK         0.0788 
     98 H98        25.0910   23.2065   -1.8445 H         1 UNK         0.0788 
     99 H99        28.5607   25.2411   -1.6455 H         1 UNK         0.2993 
    100 H100       29.0333   26.7187   -3.8072 H         1 UNK         0.0949 
    101 H101       27.9584   29.4296   -2.8823 H         1 UNK         0.0767 
    102 H102       29.2794   29.1910   -4.0203 H         1 UNK         0.0767 
    103 H103       27.6548   28.6668   -4.4359 H         1 UNK         0.0767 
    104 H104       29.5237   28.2690   -1.3030 H         1 UNK         0.3013 
    105 H105       27.1601   29.0827    2.5678 H         1 UNK         0.3121 
    106 H106       28.0747   30.9583    4.5696 H         1 UNK         0.0774 
    107 H107       25.2655   31.3472    3.3813 H         1 UNK         0.0815 
    108 H108       25.6628   31.1391    5.0834 H         1 UNK         0.0815 
    109 H109       26.1764   32.5873    4.2357 H         1 UNK         0.0815 
    110 H110       26.4531   30.7628    1.3685 H         1 UNK         0.2987 
    111 H111       27.8810   32.7714    0.0512 H         1 UNK         0.0949 
    112 H112       25.7839   31.7593   -0.8128 H         1 UNK         0.0806 
    113 H113       27.0542   31.6565   -2.0192 H         1 UNK         0.0806 
    114 H114       26.6104   30.2278   -1.0987 H         1 UNK         0.0806 
    115 H115       29.9969   32.9189   -0.1335 H         1 UNK         0.3010 
    116 H116       32.1587   32.5909   -0.4366 H         1 UNK         0.0829 
    117 H117       31.3681   30.2483   -2.2540 H         1 UNK         0.0813 
    118 H118       31.4030   31.9402   -2.7476 H         1 UNK         0.0813 
    119 H119       32.8888   31.1280   -2.2900 H         1 UNK         0.0813 
    120 H120       30.8323   31.0830    1.8243 H         1 UNK         0.3038 
    121 H121       32.0768   28.5031    1.9182 H         1 UNK         0.0769 
    122 H122       29.8181   28.8905    2.7973 H         1 UNK         0.0811 
    123 H123       30.4502   29.9904    4.0285 H         1 UNK         0.0811 
    124 H124       30.8622   28.2821    4.0636 H         1 UNK         0.0811 
    125 H125       33.8972   27.8196    2.8145 H         1 UNK         0.3204 
    126 H126       35.0882   29.2717    5.1203 H         1 UNK         0.0748 
    127 H127       36.6319   28.1771    2.6959 H         1 UNK         0.0771 
    128 H128       36.4666   29.8790    3.1232 H         1 UNK         0.0771 
    129 H129       37.3588   28.7908    4.1771 H         1 UNK         0.0771 
    130 H130       35.3130   27.8586    6.7950 H         1 UNK         0.2980 
    131 H131       35.9753   25.1195    6.4599 H         1 UNK         0.0545 
    132 H132       35.9027   23.9587    8.7521 H         1 UNK         0.3459 
    133 H133       36.4588   24.9913   10.0429 H         1 UNK         0.3459 
    134 H134       33.9486   24.0813    7.4336 H         1 UNK         0.0616 
    135 H135       33.6012   24.8122    5.9068 H         1 UNK         0.0616 
    136 H136       30.9665   27.4737    6.6618 H         1 UNK         0.0634 
    137 H137       32.3740   27.2235    5.6662 H         1 UNK         0.0634 
@<TRIPOS>BOND
     1    1    2 1    
     2    1   72 1    
     3    1   73 1    
     4    1   74 1    
     5    2    3 2    
     6    2    4 am   BACKBONE|DICT|INTERRES
     7    4    5 1    
     8    4   75 1    
     9    5    6 1    
    10    5   35 1    
    11    5   76 1    
    12    6    7 1    
    13    6   77 1    
    14    6   78 1    
    15    7    8 1    
    16    8    9 1    
    17    8   79 1    
    18    8   80 1    
    19    9   10 ar   
    20    9   14 ar   
    21   10   11 ar   
    22   10   81 1    
    23   11   12 ar   
    24   11   71 1    
    25   12   13 ar   
    26   12   82 1    
    27   13   14 ar   
    28   13   15 1    
    29   14   83 1    
    30   15   16 1    
    31   15   84 1    
    32   15   85 1    
    33   16   17 1    
    34   17   18 1    
    35   17   86 1    
    36   17   87 1    
    37   18   19 1    
    38   18   37 1    
    39   18   88 1    
    40   19   20 am   BACKBONE|DICT|INTERRES
    41   19   89 1    
    42   20   21 2    
    43   20   22 1    
    44   22   23 1    
    45   22   24 1    
    46   22   90 1    
    47   23   91 1    
    48   23   92 1    
    49   23   93 1    
    50   24   25 am   BACKBONE|DICT|INTERRES
    51   24   94 1    
    52   25   26 2    
    53   25   27 1    
    54   27   28 1    
    55   27   29 1    
    56   27   95 1    
    57   28   96 1    
    58   28   97 1    
    59   28   98 1    
    60   29   30 am   BACKBONE|DICT|INTERRES
    61   29   99 1    
    62   30   31 2    
    63   30   32 1    
    64   32   33 1    
    65   32   34 1    
    66   32  100 1    
    67   33  101 1    
    68   33  102 1    
    69   33  103 1    
    70   34   35 am   BACKBONE|DICT|INTERRES
    71   34  104 1    
    72   35   36 2    
    73   37   38 2    
    74   37   39 am   BACKBONE|DICT|INTERRES
    75   39   40 1    
    76   39  105 1    
    77   40   41 1    
    78   40   42 1    
    79   40  106 1    
    80   41  107 1    
    81   41  108 1    
    82   41  109 1    
    83   42   43 2    
    84   42   44 am   BACKBONE|DICT|INTERRES
    85   44   45 1    
    86   44  110 1    
    87   45   46 1    
    88   45   47 1    
    89   45  111 1    
    90   46  112 1    
    91   46  113 1    
    92   46  114 1    
    93   47   48 2    
    94   47   49 am   BACKBONE|DICT|INTERRES
    95   49   50 1    
    96   49  115 1    
    97   50   51 1    
    98   50   52 1    
    99   50  116 1    
   100   51  117 1    
   101   51  118 1    
   102   51  119 1    
   103   52   53 2    
   104   52   54 am   BACKBONE|DICT|INTERRES
   105   54   55 1    
   106   54  120 1    
   107   55   56 1    
   108   55   57 1    
   109   55  121 1    
   110   56  122 1    
   111   56  123 1    
   112   56  124 1    
   113   57   58 2    
   114   57   59 am   BACKBONE|DICT|INTERRES
   115   59   60 1    
   116   59  125 1    
   117   60   61 1    
   118   60   62 1    
   119   60  126 1    
   120   61  127 1    
   121   61  128 1    
   122   61  129 1    
   123   62   63 2    
   124   62   64 am   BACKBONE|DICT|INTERRES
   125   64   65 1    
   126   64  130 1    
   127   65   66 1    
   128   65   69 1    
   129   65  131 1    
   130   66   67 am   BACKBONE|DICT|INTERRES
   131   66   68 2    
   132   67  132 1    
   133   67  133 1    
   134   69   70 1    
   135   69  134 1    
   136   69  135 1    
   137   70   71 1    
   138   71  136 1    
   139   71  137 1    
@<TRIPOS>SUBSTRUCTURE
     1 UNK         1 GROUP             0       ****    0 ROOT    
