@<TRIPOS>MOLECULE
3R136
137   139    1
SMALL
USER_CHARGES


@<TRIPOS>ATOM
      1 CA         28.8598   17.9114   -0.9766 C.3       0 UNK        -0.1979 
      2 C          28.4548   19.2412   -1.5948 C.2       0 UNK         0.4864 
      3 O          27.4867   19.2927   -2.3543 O.2       0 UNK        -0.5359 
      4 N          29.1881   20.3164   -1.2750 N.am      1 UNK        -0.4318 
      5 CA         28.9382   21.6824   -1.7550 C.3       1 UNK         0.0824 
      6 C6         30.1995   22.5716   -1.6244 C.3       12 UNK        -0.0944 
      7 S7         30.8763   22.6707    0.0698 S.3       12 UNK        -0.2672 
      8 C8         30.5284   24.4082    0.4614 C.3       12 UNK         0.0333 
      9 C9         30.9669   24.7583    1.8710 C.ar      12 UNK        -0.0807 
     10 C10        32.2713   25.1915    2.1261 C.ar      12 UNK        -0.0894 
     11 C11        32.6581   25.5408    3.4239 C.ar      12 UNK        -0.0804 
     12 C12        31.7222   25.4808    4.4623 C.ar      12 UNK        -0.0824 
     13 C13        30.4164   25.0440    4.2158 C.ar      12 UNK        -0.0762 
     14 C14        30.0529   24.6643    2.9214 C.ar      12 UNK        -0.0782 
     15 C15        29.3979   24.9764    5.3444 C.3       12 UNK         0.0230 
     16 S16        28.4579   26.5295    5.5031 S.3       12 UNK        -0.2608 
     17 C17        27.4258   26.5119    3.9956 C.3       12 UNK        -0.0989 
     18 CA         27.9844   27.4437    2.8864 C.3       5 UNK         0.0716 
     19 N          27.6867   26.9448    1.5346 N.am      5 UNK        -0.4135 
     20 C          28.0761   27.5319    0.3879 C.2       4 UNK         0.5031 
     21 O          28.8758   28.4661    0.3498 O.2       4 UNK        -0.5229 
     22 CA         27.4057   27.0913   -0.9327 C.3       4 UNK         0.0329 
     23 CB         28.4113   26.4539   -1.9032 C.3       4 UNK        -0.2001 
     24 N          26.2484   26.2069   -0.7673 N.am      4 UNK        -0.4303 
     25 C          25.1169   26.5397   -0.1268 C.2       3 UNK         0.5044 
     26 O          24.8981   27.6665    0.3212 O.2       3 UNK        -0.5152 
     27 CA         24.0903   25.4225    0.1327 C.3       3 UNK         0.0319 
     28 CB         22.9442   25.5054   -0.8876 C.3       3 UNK        -0.2001 
     29 N          24.6334   24.0582    0.1348 N.am      3 UNK        -0.4354 
     30 C          25.6507   23.5926    0.8772 C.2       2 UNK         0.4964 
     31 O          26.3217   24.2906    1.6388 O.2       2 UNK        -0.5047 
     32 CA         25.9903   22.0962    0.7360 C.3       2 UNK         0.0288 
     33 CB         24.8723   21.2645    0.0660 C.3       2 UNK        -0.2113 
     34 N          27.2627   21.8445    0.0482 N.am      2 UNK        -0.4145 
     35 C          27.6759   22.3297   -1.1356 C.2       1 UNK         0.5006 
     36 O          27.0927   23.2194   -1.7593 O.2       1 UNK        -0.5103 
     37 C          27.5211   28.9039    3.1108 C.2       5 UNK         0.5055 
     38 O          28.1455   29.6247    3.8891 O.2       5 UNK        -0.5220 
     39 N          26.4837   29.3493    2.3821 N.am      6 UNK        -0.4450 
     40 CA         26.0388   30.7470    2.3363 C.3       6 UNK         0.0367 
     41 CB         24.7460   30.8337    1.5098 C.3       6 UNK        -0.1929 
     42 C          27.0956   31.7277    1.7827 C.2       6 UNK         0.5070 
     43 O          26.9855   32.9273    2.0360 O.2       6 UNK        -0.5237 
     44 N          28.0961   31.2121    1.0552 N.am      7 UNK        -0.4739 
     45 CA         29.2256   31.9555    0.5007 C.3       7 UNK         0.0276 
     46 CB         29.1908   31.8218   -1.0334 C.3       7 UNK        -0.1927 
     47 C          30.5657   31.4697    1.0891 C.2       7 UNK         0.5013 
     48 O          31.6028   31.6835    0.4592 O.2       7 UNK        -0.5193 
     49 N          30.5417   30.8326    2.2739 N.am      8 UNK        -0.4253 
     50 CA         31.7291   30.3140    2.9690 C.3       8 UNK         0.0242 
     51 CB         31.3060   29.5260    4.2209 C.3       8 UNK        -0.2000 
     52 C          32.7482   31.3975    3.3582 C.2       8 UNK         0.4948 
     53 O          33.9530   31.1372    3.3144 O.2       8 UNK        -0.5275 
     54 N          32.2444   32.5808    3.7430 N.am      9 UNK        -0.4246 
     55 CA         32.9509   33.8147    4.1204 C.3       9 UNK         0.0261 
     56 CB         33.7216   34.3983    2.9197 C.3       9 UNK        -0.1959 
     57 C          33.8630   33.6955    5.3563 C.2       9 UNK         0.5033 
     58 O          33.7192   34.4860    6.2902 O.2       9 UNK        -0.5390 
     59 N          34.7801   32.7253    5.3350 N.am      10 UNK        -0.4215 
     60 CA         35.7664   32.4494    6.3759 C.3       10 UNK         0.0240 
     61 CB         37.0420   33.2673    6.1005 C.3       10 UNK        -0.1982 
     62 C          36.0939   30.9536    6.5298 C.2       10 UNK         0.4970 
     63 O          36.7392   30.6113    7.5221 O.2       10 UNK        -0.4916 
     64 N          35.6813   30.0834    5.5901 N.am      11 UNK        -0.4279 
     65 CA         35.9747   28.6377    5.6567 C.3       11 UNK         0.1003 
     66 C          35.1576   27.8400    6.7178 C.2       11 UNK         0.5709 
     67 N          34.1075   28.3997    7.3077 N.am      11 UNK        -0.7358 
     68 O          35.4958   26.6986    7.0216 O.2       11 UNK        -0.4999 
     69 C69        35.9789   27.9640    4.2559 C.3       12 UNK        -0.0954 
     70 S70        34.3327   27.7441    3.4988 S.3       12 UNK        -0.2268 
     71 C71        34.0924   25.9553    3.7121 C.3       12 UNK         0.0203 
     72 H72        28.0400   17.5089   -0.3821 H         1 UNK         0.0888 
     73 H73        29.0992   17.1917   -1.7589 H         1 UNK         0.0888 
     74 H74        29.7312   18.0107   -0.3295 H         1 UNK         0.0888 
     75 H75        29.9791   20.2175   -0.6532 H         1 UNK         0.3017 
     76 H76        28.7245   21.6042   -2.8235 H         1 UNK         0.0873 
     77 H77        30.0089   23.5706   -2.0185 H         1 UNK         0.0745 
     78 H78        30.9871   22.1648   -2.2607 H         1 UNK         0.0745 
     79 H79        29.4571   24.5844    0.3612 H         1 UNK         0.0705 
     80 H80        31.0264   25.0587   -0.2595 H         1 UNK         0.0705 
     81 H81        32.9866   25.2504    1.3170 H         1 UNK         0.1334 
     82 H82        32.0133   25.7674    5.4639 H         1 UNK         0.1417 
     83 H83        29.0503   24.3120    2.7216 H         1 UNK         0.1562 
     84 H84        29.9063   24.7774    6.2890 H         1 UNK         0.0748 
     85 H85        28.7106   24.1428    5.1908 H         1 UNK         0.0748 
     86 H86        26.4012   26.7782    4.2640 H         1 UNK         0.0940 
     87 H87        27.3590   25.4831    3.6477 H         1 UNK         0.0940 
     88 H88        29.0735   27.4454    2.9499 H         1 UNK         0.0703 
     89 H89        27.0619   26.1460    1.4810 H         1 UNK         0.3081 
     90 H90        27.0417   28.0090   -1.3996 H         1 UNK         0.0719 
     91 H91        28.7087   25.4597   -1.5809 H         1 UNK         0.0809 
     92 H92        27.9853   26.3601   -2.9022 H         1 UNK         0.0809 
     93 H93        29.3155   27.0577   -1.9937 H         1 UNK         0.0809 
     94 H94        26.3551   25.2509   -1.0878 H         1 UNK         0.2990 
     95 H95        23.6755   25.6006    1.1267 H         1 UNK         0.0690 
     96 H96        23.2905   25.2947   -1.9003 H         1 UNK         0.0788 
     97 H97        22.4989   26.5015   -0.8960 H         1 UNK         0.0788 
     98 H98        22.1476   24.8001   -0.6500 H         1 UNK         0.0788 
     99 H99        24.1769   23.4004   -0.4805 H         1 UNK         0.2993 
    100 H100       26.1101   21.7242    1.7548 H         1 UNK         0.0949 
    101 H101       24.7385   21.5228   -0.9854 H         1 UNK         0.0767 
    102 H102       25.1035   20.1998    0.1091 H         1 UNK         0.0767 
    103 H103       23.9154   21.4005    0.5723 H         1 UNK         0.0767 
    104 H104       27.8592   21.1576    0.4867 H         1 UNK         0.3013 
    105 H105       26.0108   28.7077    1.7529 H         1 UNK         0.3121 
    106 H106       25.8147   31.0567    3.3591 H         1 UNK         0.0774 
    107 H107       23.9631   30.2005    1.9276 H         1 UNK         0.0815 
    108 H108       24.3610   31.8543    1.4905 H         1 UNK         0.0815 
    109 H109       24.9086   30.5263    0.4759 H         1 UNK         0.0815 
    110 H110       28.1357   30.2073    0.9071 H         1 UNK         0.2987 
    111 H111       29.1457   33.0152    0.7517 H         1 UNK         0.0949 
    112 H112       29.3303   30.7866   -1.3480 H         1 UNK         0.0806 
    113 H113       28.2415   32.1707   -1.4399 H         1 UNK         0.0806 
    114 H114       29.9776   32.4157   -1.5004 H         1 UNK         0.0806 
    115 H115       29.6471   30.6695    2.7219 H         1 UNK         0.3010 
    116 H116       32.2344   29.6271    2.2869 H         1 UNK         0.0829 
    117 H117       32.1695   29.2267    4.8157 H         1 UNK         0.0813 
    118 H118       30.6571   30.1128    4.8717 H         1 UNK         0.0813 
    119 H119       30.7790   28.6116    3.9537 H         1 UNK         0.0813 
    120 H120       31.2366   32.6473    3.7748 H         1 UNK         0.3038 
    121 H121       32.1696   34.5307    4.3810 H         1 UNK         0.0769 
    122 H122       34.1884   35.3491    3.1805 H         1 UNK         0.0811 
    123 H123       33.0559   34.5844    2.0768 H         1 UNK         0.0811 
    124 H124       34.5132   33.7316    2.5764 H         1 UNK         0.0811 
    125 H125       34.7614   32.1126    4.5203 H         1 UNK         0.3204 
    126 H126       35.3573   32.7653    7.3380 H         1 UNK         0.0748 
    127 H127       37.7967   33.0925    6.8685 H         1 UNK         0.0771 
    128 H128       37.4857   33.0063    5.1390 H         1 UNK         0.0771 
    129 H129       36.8331   34.3373    6.0934 H         1 UNK         0.0771 
    130 H130       35.1340   30.3851    4.7929 H         1 UNK         0.2980 
    131 H131       37.0071   28.5592    6.0037 H         1 UNK         0.0545 
    132 H132       33.8292   29.3377    7.0725 H         1 UNK         0.3459 
    133 H133       33.5946   27.8772    7.9994 H         1 UNK         0.3459 
    134 H134       36.5843   28.5558    3.5679 H         1 UNK         0.0616 
    135 H135       36.4769   26.9944    4.3133 H         1 UNK         0.0616 
    136 H136       34.3583   25.6671    4.7297 H         1 UNK         0.0634 
    137 H137       34.7784   25.4208    3.0533 H         1 UNK         0.0634 
@<TRIPOS>BOND
     1    1    2 1    
     2    1   72 1    
     3    1   73 1    
     4    1   74 1    
     5    2    3 2    
     6    2    4 am   BACKBONE|DICT|INTERRES
     7    4    5 1    
     8    4   75 1    
     9    5    6 1    
    10    5   35 1    
    11    5   76 1    
    12    6    7 1    
    13    6   77 1    
    14    6   78 1    
    15    7    8 1    
    16    8    9 1    
    17    8   79 1    
    18    8   80 1    
    19    9   10 ar   
    20    9   14 ar   
    21   10   11 ar   
    22   10   81 1    
    23   11   12 ar   
    24   11   71 1    
    25   12   13 ar   
    26   12   82 1    
    27   13   14 ar   
    28   13   15 1    
    29   14   83 1    
    30   15   16 1    
    31   15   84 1    
    32   15   85 1    
    33   16   17 1    
    34   17   18 1    
    35   17   86 1    
    36   17   87 1    
    37   18   19 1    
    38   18   37 1    
    39   18   88 1    
    40   19   20 am   BACKBONE|DICT|INTERRES
    41   19   89 1    
    42   20   21 2    
    43   20   22 1    
    44   22   23 1    
    45   22   24 1    
    46   22   90 1    
    47   23   91 1    
    48   23   92 1    
    49   23   93 1    
    50   24   25 am   BACKBONE|DICT|INTERRES
    51   24   94 1    
    52   25   26 2    
    53   25   27 1    
    54   27   28 1    
    55   27   29 1    
    56   27   95 1    
    57   28   96 1    
    58   28   97 1    
    59   28   98 1    
    60   29   30 am   BACKBONE|DICT|INTERRES
    61   29   99 1    
    62   30   31 2    
    63   30   32 1    
    64   32   33 1    
    65   32   34 1    
    66   32  100 1    
    67   33  101 1    
    68   33  102 1    
    69   33  103 1    
    70   34   35 am   BACKBONE|DICT|INTERRES
    71   34  104 1    
    72   35   36 2    
    73   37   38 2    
    74   37   39 am   BACKBONE|DICT|INTERRES
    75   39   40 1    
    76   39  105 1    
    77   40   41 1    
    78   40   42 1    
    79   40  106 1    
    80   41  107 1    
    81   41  108 1    
    82   41  109 1    
    83   42   43 2    
    84   42   44 am   BACKBONE|DICT|INTERRES
    85   44   45 1    
    86   44  110 1    
    87   45   46 1    
    88   45   47 1    
    89   45  111 1    
    90   46  112 1    
    91   46  113 1    
    92   46  114 1    
    93   47   48 2    
    94   47   49 am   BACKBONE|DICT|INTERRES
    95   49   50 1    
    96   49  115 1    
    97   50   51 1    
    98   50   52 1    
    99   50  116 1    
   100   51  117 1    
   101   51  118 1    
   102   51  119 1    
   103   52   53 2    
   104   52   54 am   BACKBONE|DICT|INTERRES
   105   54   55 1    
   106   54  120 1    
   107   55   56 1    
   108   55   57 1    
   109   55  121 1    
   110   56  122 1    
   111   56  123 1    
   112   56  124 1    
   113   57   58 2    
   114   57   59 am   BACKBONE|DICT|INTERRES
   115   59   60 1    
   116   59  125 1    
   117   60   61 1    
   118   60   62 1    
   119   60  126 1    
   120   61  127 1    
   121   61  128 1    
   122   61  129 1    
   123   62   63 2    
   124   62   64 am   BACKBONE|DICT|INTERRES
   125   64   65 1    
   126   64  130 1    
   127   65   66 1    
   128   65   69 1    
   129   65  131 1    
   130   66   67 am   BACKBONE|DICT|INTERRES
   131   66   68 2    
   132   67  132 1    
   133   67  133 1    
   134   69   70 1    
   135   69  134 1    
   136   69  135 1    
   137   70   71 1    
   138   71  136 1    
   139   71  137 1    
@<TRIPOS>SUBSTRUCTURE
     1 UNK         1 GROUP             0       ****    0 ROOT    
