@<TRIPOS>MOLECULE
3R136
137   139    1
SMALL
USER_CHARGES


@<TRIPOS>ATOM
      1 CA         32.8448   26.0782    1.2908 C.3       0 UNK        -0.1979 
      2 C          31.5157   25.3971    1.0043 C.2       0 UNK         0.4864 
      3 O          30.4943   26.0754    0.8809 O.2       0 UNK        -0.5359 
      4 N          31.5287   24.0620    0.9056 N.am      1 UNK        -0.4318 
      5 CA         30.3582   23.2141    0.6627 C.3       1 UNK         0.0824 
      6 C6         30.6698   21.6992    0.8407 C.3       12 UNK        -0.0944 
      7 S7         31.7912   21.2875    2.2257 S.3       12 UNK        -0.2672 
      8 C8         30.6410   21.0293    3.6104 C.3       12 UNK         0.0333 
      9 C9         30.0681   22.3446    4.1145 C.ar      12 UNK        -0.0807 
     10 C10        30.8916   23.2638    4.7733 C.ar      12 UNK        -0.0894 
     11 C11        30.3729   24.4769    5.2351 C.ar      12 UNK        -0.0804 
     12 C12        29.0197   24.7651    5.0402 C.ar      12 UNK        -0.0824 
     13 C13        28.1911   23.8579    4.3737 C.ar      12 UNK        -0.0762 
     14 C14        28.7171   22.6448    3.9218 C.ar      12 UNK        -0.0782 
     15 C15        26.7309   24.1926    4.1206 C.3       12 UNK         0.0230 
     16 S16        26.4838   24.7910    2.4217 S.3       12 UNK        -0.2608 
     17 C17        27.2493   26.4427    2.5148 C.3       12 UNK        -0.0989 
     18 CA         27.2466   27.1803    1.1551 C.3       5 UNK         0.0716 
     19 N          25.8981   27.2771    0.5860 N.am      5 UNK        -0.4135 
     20 C          25.5895   27.7838   -0.6134 C.2       4 UNK         0.5031 
     21 O          26.4014   28.3009   -1.3834 O.2       4 UNK        -0.5229 
     22 CA         24.1499   27.5627   -1.0869 C.3       4 UNK         0.0329 
     23 CB         23.5930   28.7707   -1.8617 C.3       4 UNK        -0.2001 
     24 N          24.2144   26.4021   -1.9651 N.am      4 UNK        -0.4303 
     25 C          23.4630   25.2995   -1.8729 C.2       3 UNK         0.5044 
     26 O          22.4715   25.1956   -1.1499 O.2       3 UNK        -0.5152 
     27 CA         23.9302   24.0900   -2.7074 C.3       3 UNK         0.0319 
     28 CB         23.2977   24.1207   -4.1082 C.3       3 UNK        -0.2001 
     29 N          25.3935   24.0158   -2.8298 N.am      3 UNK        -0.4354 
     30 C          26.2263   23.8008   -1.8001 C.2       2 UNK         0.4964 
     31 O          25.8433   23.5283   -0.6605 O.2       2 UNK        -0.5047 
     32 CA         27.7297   23.9369   -2.0820 C.3       2 UNK         0.0288 
     33 CB         28.0806   25.3333   -2.6431 C.3       2 UNK        -0.2113 
     34 N          28.4646   23.6891   -0.8408 N.am      2 UNK        -0.4145 
     35 C          29.7810   23.4726   -0.7454 C.2       1 UNK         0.5006 
     36 O          30.5401   23.4422   -1.7185 O.2       1 UNK        -0.5103 
     37 C          27.9287   28.5528    1.3095 C.2       5 UNK         0.5055 
     38 O          27.2710   29.5347    1.6659 O.2       5 UNK        -0.5220 
     39 N          29.2506   28.5791    1.1093 N.am      6 UNK        -0.4450 
     40 CA         30.1113   29.7521    1.2691 C.3       6 UNK         0.0367 
     41 CB         31.3134   29.6154    0.3203 C.3       6 UNK        -0.1929 
     42 C          30.5137   29.9509    2.7430 C.2       6 UNK         0.5070 
     43 O          31.7049   29.9869    3.0718 O.2       6 UNK        -0.5237 
     44 N          29.4946   30.0764    3.6042 N.am      7 UNK        -0.4739 
     45 CA         29.6003   30.3384    5.0396 C.3       7 UNK         0.0276 
     46 CB         28.1929   30.3639    5.6553 C.3       7 UNK        -0.1927 
     47 C          30.3401   31.6586    5.3030 C.2       7 UNK         0.5013 
     48 O          29.9700   32.6791    4.7185 O.2       7 UNK        -0.5193 
     49 N          31.4043   31.6006    6.1157 N.am      8 UNK        -0.4253 
     50 CA         32.3810   32.6587    6.4275 C.3       8 UNK         0.0242 
     51 CB         31.7079   33.8643    7.1132 C.3       8 UNK        -0.2000 
     52 C          33.2545   33.1149    5.2387 C.2       8 UNK         0.4948 
     53 O          34.4083   33.4853    5.4572 O.2       8 UNK        -0.5275 
     54 N          32.7089   33.0864    4.0157 N.am      9 UNK        -0.4246 
     55 CA         33.3854   33.4287    2.7646 C.3       9 UNK         0.0261 
     56 CB         32.3497   33.5263    1.6327 C.3       9 UNK        -0.1959 
     57 C          34.5085   32.4442    2.3998 C.2       9 UNK         0.5033 
     58 O          35.5777   32.8901    1.9795 O.2       9 UNK        -0.5390 
     59 N          34.2555   31.1405    2.5763 N.am      10 UNK        -0.4215 
     60 CA         35.2378   30.0715    2.3798 C.3       10 UNK         0.0240 
     61 CB         34.9188   29.2895    1.0978 C.3       10 UNK        -0.1982 
     62 C          35.3115   29.1316    3.5909 C.2       10 UNK         0.4970 
     63 O          36.4040   28.6461    3.8875 O.2       10 UNK        -0.4916 
     64 N          34.1829   28.8921    4.2766 N.am      11 UNK        -0.4279 
     65 CA         34.1369   28.1369    5.5402 C.3       11 UNK         0.1003 
     66 C          34.9406   28.8393    6.6697 C.2       11 UNK         0.5709 
     67 N          35.7325   28.0958    7.4301 N.am      11 UNK        -0.7358 
     68 O          34.8087   30.0416    6.8893 O.2       11 UNK        -0.4999 
     69 C69        32.6834   27.8916    6.0122 C.3       12 UNK        -0.0954 
     70 S70        31.7159   26.8627    4.8605 S.3       12 UNK        -0.2268 
     71 C71        31.2670   25.4769    5.9493 C.3       12 UNK         0.0203 
     72 H72        33.2390   26.5263    0.3796 H         1 UNK         0.0888 
     73 H73        32.7108   26.8643    2.0331 H         1 UNK         0.0888 
     74 H74        33.5841   25.3768    1.6771 H         1 UNK         0.0888 
     75 H75        32.3983   23.5609    1.0141 H         1 UNK         0.3017 
     76 H76        29.6068   23.5013    1.4006 H         1 UNK         0.0873 
     77 H77        29.7414   21.1360    0.9501 H         1 UNK         0.0745 
     78 H78        31.1511   21.3010   -0.0553 H         1 UNK         0.0745 
     79 H79        31.1770   20.5406    4.4253 H         1 UNK         0.0705 
     80 H80        29.8507   20.3404    3.3081 H         1 UNK         0.0705 
     81 H81        31.9390   23.0354    4.9169 H         1 UNK         0.1334 
     82 H82        28.6187   25.7066    5.3903 H         1 UNK         0.1417 
     83 H83        28.0756   21.9443    3.4043 H         1 UNK         0.1562 
     84 H84        26.3713   24.9388    4.8310 H         1 UNK         0.0748 
     85 H85        26.1187   23.3029    4.2755 H         1 UNK         0.0748 
     86 H86        28.2770   26.3238    2.8640 H         1 UNK         0.0940 
     87 H87        26.7270   27.0266    3.2758 H         1 UNK         0.0940 
     88 H88        27.8374   26.5911    0.4509 H         1 UNK         0.0703 
     89 H89        25.1697   26.8388    1.1302 H         1 UNK         0.3081 
     90 H90        23.5104   27.3693   -0.2226 H         1 UNK         0.0719 
     91 H91        23.5829   29.6629   -1.2346 H         1 UNK         0.0809 
     92 H92        24.1884   28.9989   -2.7468 H         1 UNK         0.0809 
     93 H93        22.5688   28.5897   -2.1878 H         1 UNK         0.0809 
     94 H94        25.0191   26.3768   -2.5760 H         1 UNK         0.2990 
     95 H95        23.5887   23.1862   -2.1980 H         1 UNK         0.0690 
     96 H96        23.6160   24.9944   -4.6784 H         1 UNK         0.0788 
     97 H97        22.2091   24.1536   -4.0427 H         1 UNK         0.0788 
     98 H98        23.5589   23.2309   -4.6814 H         1 UNK         0.0788 
     99 H99        25.7825   24.2029   -3.7432 H         1 UNK         0.2993 
    100 H100       28.0014   23.1699   -2.8103 H         1 UNK         0.0949 
    101 H101       27.8572   26.1203   -1.9241 H         1 UNK         0.0767 
    102 H102       29.1386   25.4112   -2.8924 H         1 UNK         0.0767 
    103 H103       27.5297   25.5560   -3.5570 H         1 UNK         0.0767 
    104 H104       27.8722   23.6542   -0.0181 H         1 UNK         0.3013 
    105 H105       29.7265   27.6936    0.9256 H         1 UNK         0.3121 
    106 H106       29.5603   30.6466    0.9705 H         1 UNK         0.0774 
    107 H107       32.0320   30.4235    0.4581 H         1 UNK         0.0815 
    108 H108       31.8344   28.6735    0.4778 H         1 UNK         0.0815 
    109 H109       30.9940   29.6429   -0.7215 H         1 UNK         0.0815 
    110 H110       28.5589   30.0518    3.2138 H         1 UNK         0.2987 
    111 H111       30.1497   29.5102    5.4852 H         1 UNK         0.0949 
    112 H112       27.6754   29.4165    5.5024 H         1 UNK         0.0806 
    113 H113       28.2406   30.5371    6.7313 H         1 UNK         0.0806 
    114 H114       27.5784   31.1555    5.2242 H         1 UNK         0.0806 
    115 H115       31.6267   30.7048    6.5251 H         1 UNK         0.3010 
    116 H116       33.0663   32.2147    7.1517 H         1 UNK         0.0829 
    117 H117       31.1431   33.5563    7.9930 H         1 UNK         0.0813 
    118 H118       32.4543   34.5875    7.4443 H         1 UNK         0.0813 
    119 H119       31.0269   34.3896    6.4432 H         1 UNK         0.0813 
    120 H120       31.7269   32.8333    3.9589 H         1 UNK         0.3038 
    121 H121       33.8403   34.4132    2.8935 H         1 UNK         0.0769 
    122 H122       31.6212   34.3127    1.8314 H         1 UNK         0.0811 
    123 H123       32.8296   33.7627    0.6819 H         1 UNK         0.0811 
    124 H124       31.8033   32.5927    1.5012 H         1 UNK         0.0811 
    125 H125       33.3269   30.8595    2.8852 H         1 UNK         0.3204 
    126 H126       36.2349   30.5025    2.2666 H         1 UNK         0.0748 
    127 H127       34.8812   29.9463    0.2285 H         1 UNK         0.0771 
    128 H128       35.6785   28.5315    0.9030 H         1 UNK         0.0771 
    129 H129       33.9629   28.7785    1.1774 H         1 UNK         0.0771 
    130 H130       33.2997   29.2689    3.9503 H         1 UNK         0.2980 
    131 H131       34.5967   27.1648    5.3506 H         1 UNK         0.0545 
    132 H132       35.8391   27.1073    7.2640 H         1 UNK         0.3459 
    133 H133       36.2455   28.5361    8.1777 H         1 UNK         0.3459 
    134 H134       32.6824   27.4126    6.9933 H         1 UNK         0.0616 
    135 H135       32.1696   28.8410    6.1472 H         1 UNK         0.0616 
    136 H136       30.7498   25.8610    6.8299 H         1 UNK         0.0634 
    137 H137       32.1765   24.9921    6.3075 H         1 UNK         0.0634 
@<TRIPOS>BOND
     1    1    2 1    
     2    1   72 1    
     3    1   73 1    
     4    1   74 1    
     5    2    3 2    
     6    2    4 am   BACKBONE|DICT|INTERRES
     7    4    5 1    
     8    4   75 1    
     9    5    6 1    
    10    5   35 1    
    11    5   76 1    
    12    6    7 1    
    13    6   77 1    
    14    6   78 1    
    15    7    8 1    
    16    8    9 1    
    17    8   79 1    
    18    8   80 1    
    19    9   10 ar   
    20    9   14 ar   
    21   10   11 ar   
    22   10   81 1    
    23   11   12 ar   
    24   11   71 1    
    25   12   13 ar   
    26   12   82 1    
    27   13   14 ar   
    28   13   15 1    
    29   14   83 1    
    30   15   16 1    
    31   15   84 1    
    32   15   85 1    
    33   16   17 1    
    34   17   18 1    
    35   17   86 1    
    36   17   87 1    
    37   18   19 1    
    38   18   37 1    
    39   18   88 1    
    40   19   20 am   BACKBONE|DICT|INTERRES
    41   19   89 1    
    42   20   21 2    
    43   20   22 1    
    44   22   23 1    
    45   22   24 1    
    46   22   90 1    
    47   23   91 1    
    48   23   92 1    
    49   23   93 1    
    50   24   25 am   BACKBONE|DICT|INTERRES
    51   24   94 1    
    52   25   26 2    
    53   25   27 1    
    54   27   28 1    
    55   27   29 1    
    56   27   95 1    
    57   28   96 1    
    58   28   97 1    
    59   28   98 1    
    60   29   30 am   BACKBONE|DICT|INTERRES
    61   29   99 1    
    62   30   31 2    
    63   30   32 1    
    64   32   33 1    
    65   32   34 1    
    66   32  100 1    
    67   33  101 1    
    68   33  102 1    
    69   33  103 1    
    70   34   35 am   BACKBONE|DICT|INTERRES
    71   34  104 1    
    72   35   36 2    
    73   37   38 2    
    74   37   39 am   BACKBONE|DICT|INTERRES
    75   39   40 1    
    76   39  105 1    
    77   40   41 1    
    78   40   42 1    
    79   40  106 1    
    80   41  107 1    
    81   41  108 1    
    82   41  109 1    
    83   42   43 2    
    84   42   44 am   BACKBONE|DICT|INTERRES
    85   44   45 1    
    86   44  110 1    
    87   45   46 1    
    88   45   47 1    
    89   45  111 1    
    90   46  112 1    
    91   46  113 1    
    92   46  114 1    
    93   47   48 2    
    94   47   49 am   BACKBONE|DICT|INTERRES
    95   49   50 1    
    96   49  115 1    
    97   50   51 1    
    98   50   52 1    
    99   50  116 1    
   100   51  117 1    
   101   51  118 1    
   102   51  119 1    
   103   52   53 2    
   104   52   54 am   BACKBONE|DICT|INTERRES
   105   54   55 1    
   106   54  120 1    
   107   55   56 1    
   108   55   57 1    
   109   55  121 1    
   110   56  122 1    
   111   56  123 1    
   112   56  124 1    
   113   57   58 2    
   114   57   59 am   BACKBONE|DICT|INTERRES
   115   59   60 1    
   116   59  125 1    
   117   60   61 1    
   118   60   62 1    
   119   60  126 1    
   120   61  127 1    
   121   61  128 1    
   122   61  129 1    
   123   62   63 2    
   124   62   64 am   BACKBONE|DICT|INTERRES
   125   64   65 1    
   126   64  130 1    
   127   65   66 1    
   128   65   69 1    
   129   65  131 1    
   130   66   67 am   BACKBONE|DICT|INTERRES
   131   66   68 2    
   132   67  132 1    
   133   67  133 1    
   134   69   70 1    
   135   69  134 1    
   136   69  135 1    
   137   70   71 1    
   138   71  136 1    
   139   71  137 1    
@<TRIPOS>SUBSTRUCTURE
     1 UNK         1 GROUP             0       ****    0 ROOT    
