@<TRIPOS>MOLECULE
3R136
137   139    1
SMALL
USER_CHARGES


@<TRIPOS>ATOM
      1 CA         24.6873   18.1712   -0.0676 C.3       0 UNK        -0.1979 
      2 C          25.7939   19.1862   -0.3134 C.2       0 UNK         0.4864 
      3 O          25.8092   19.8299   -1.3633 O.2       0 UNK        -0.5359 
      4 N          26.7201   19.3307    0.6454 N.am      1 UNK        -0.4318 
      5 CA         27.8460   20.2722    0.5922 C.3       1 UNK         0.0824 
      6 C6         28.9084   19.9244    1.6681 C.3       12 UNK        -0.0944 
      7 S7         30.5501   20.6360    1.3130 S.3       12 UNK        -0.2672 
      8 C8         30.5557   22.0401    2.4761 C.3       12 UNK         0.0333 
      9 C9         31.5726   23.1216    2.1267 C.ar      12 UNK        -0.0807 
     10 C10        32.3084   23.7280    3.1481 C.ar      12 UNK        -0.0894 
     11 C11        33.2224   24.7461    2.8631 C.ar      12 UNK        -0.0804 
     12 C12        33.4034   25.1604    1.5395 C.ar      12 UNK        -0.0824 
     13 C13        32.6697   24.5670    0.5064 C.ar      12 UNK        -0.0762 
     14 C14        31.7496   23.5575    0.8079 C.ar      12 UNK        -0.0782 
     15 C15        32.8920   24.9805   -0.9423 C.3       12 UNK         0.0230 
     16 S16        31.5680   26.0643   -1.5630 S.3       12 UNK        -0.2608 
     17 C17        32.0968   27.6812   -0.9070 C.3       12 UNK        -0.0989 
     18 CA         30.9981   28.7651   -1.0495 C.3       5 UNK         0.0716 
     19 N          29.7742   28.3668   -0.3509 N.am      5 UNK        -0.4135 
     20 C          28.6253   29.0497   -0.2541 C.2       4 UNK         0.5031 
     21 O          28.4450   30.1668   -0.7404 O.2       4 UNK        -0.5229 
     22 CA         27.4530   28.3508    0.4643 C.3       4 UNK         0.0329 
     23 CB         26.2821   28.1205   -0.5065 C.3       4 UNK        -0.2001 
     24 N          27.8225   27.0619    1.0568 N.am      4 UNK        -0.4303 
     25 C          28.3866   26.8935    2.2605 C.2       3 UNK         0.5044 
     26 O          28.6361   27.8168    3.0348 O.2       3 UNK        -0.5152 
     27 CA         28.7380   25.4449    2.6459 C.3       3 UNK         0.0319 
     28 CB         28.9877   25.2654    4.1586 C.3       3 UNK        -0.2001 
     29 N          27.7629   24.4685    2.1404 N.am      3 UNK        -0.4354 
     30 C          26.4643   24.3625    2.4552 C.2       2 UNK         0.4964 
     31 O          25.8973   25.0789    3.2800 O.2       2 UNK        -0.5047 
     32 CA         25.6405   23.2832    1.7236 C.3       2 UNK         0.0288 
     33 CB         25.0351   23.8519    0.4245 C.3       2 UNK        -0.2113 
     34 N          26.3283   22.0036    1.4736 N.am      2 UNK        -0.4145 
     35 C          27.3855   21.7461    0.6852 C.2       1 UNK         0.5006 
     36 O          27.9955   22.6131    0.0564 O.2       1 UNK        -0.5103 
     37 C          31.5247   30.1240   -0.5511 C.2       5 UNK         0.5055 
     38 O          31.9531   30.2081    0.5980 O.2       5 UNK        -0.5220 
     39 N          31.4894   31.1480   -1.4162 N.am      6 UNK        -0.4450 
     40 CA         31.9239   32.5391   -1.2070 C.3       6 UNK         0.0367 
     41 CB         33.4322   32.6254   -0.8993 C.3       6 UNK        -0.1929 
     42 C          31.0942   33.3229   -0.1709 C.2       6 UNK         0.5070 
     43 O          30.5915   34.3992   -0.4961 O.2       6 UNK        -0.5237 
     44 N          30.9530   32.7795    1.0402 N.am      7 UNK        -0.4739 
     45 CA         30.1322   33.3011    2.1259 C.3       7 UNK         0.0276 
     46 CB         30.9651   34.2406    3.0137 C.3       7 UNK        -0.1927 
     47 C          29.5936   32.1060    2.9167 C.2       7 UNK         0.5013 
     48 O          30.3745   31.2186    3.2702 O.2       7 UNK        -0.5193 
     49 N          28.2778   32.1051    3.1709 N.am      8 UNK        -0.4253 
     50 CA         27.5372   31.0165    3.8133 C.3       8 UNK         0.0242 
     51 CB         26.0482   31.3883    3.8992 C.3       8 UNK        -0.2000 
     52 C          28.0907   30.6525    5.1992 C.2       8 UNK         0.4948 
     53 O          28.1933   31.5305    6.0581 O.2       8 UNK        -0.5275 
     54 N          28.4712   29.3793    5.3698 N.am      9 UNK        -0.4246 
     55 CA         29.0637   28.7382    6.5543 C.3       9 UNK         0.0261 
     56 CB         28.1205   28.8212    7.7704 C.3       9 UNK        -0.1959 
     57 C          30.4836   29.2177    6.9175 C.2       9 UNK         0.5033 
     58 O          31.2452   28.4372    7.4897 O.2       9 UNK        -0.5390 
     59 N          30.8256   30.4674    6.5824 N.am      10 UNK        -0.4215 
     60 CA         32.1561   31.0562    6.7356 C.3       10 UNK         0.0240 
     61 CB         32.0481   32.5825    6.5925 C.3       10 UNK        -0.1982 
     62 C          33.1851   30.4889    5.7412 C.2       10 UNK         0.4970 
     63 O          34.3726   30.4671    6.0668 O.2       10 UNK        -0.4916 
     64 N          32.7177   30.0535    4.5623 N.am      11 UNK        -0.4279 
     65 CA         33.5124   29.4786    3.4626 C.3       11 UNK         0.1003 
     66 C          34.4139   30.5141    2.7206 C.2       11 UNK         0.5709 
     67 N          34.1969   31.8150    2.8820 N.am      11 UNK        -0.7358 
     68 O          35.3181   30.1397    1.9766 O.2       11 UNK        -0.4999 
     69 C69        34.2864   28.1845    3.8508 C.3       12 UNK        -0.0954 
     70 S70        33.2308   26.8984    4.6020 S.3       12 UNK        -0.2268 
     71 C71        34.0213   25.3769    3.9931 C.3       12 UNK         0.0203 
     72 H72        23.7159   18.6650   -0.0806 H         1 UNK         0.0888 
     73 H73        24.6943   17.4121   -0.8494 H         1 UNK         0.0888 
     74 H74        24.7994   17.6688    0.8931 H         1 UNK         0.0888 
     75 H75        26.6605   18.7590    1.4766 H         1 UNK         0.3017 
     76 H76        28.3097   20.1493   -0.3895 H         1 UNK         0.0873 
     77 H77        29.0503   18.8430    1.7059 H         1 UNK         0.0745 
     78 H78        28.5748   20.2103    2.6678 H         1 UNK         0.0745 
     79 H79        30.7386   21.6496    3.4785 H         1 UNK         0.0705 
     80 H80        29.5694   22.4975    2.5030 H         1 UNK         0.0705 
     81 H81        32.1661   23.4119    4.1726 H         1 UNK         0.1334 
     82 H82        34.1182   25.9401    1.3152 H         1 UNK         0.1417 
     83 H83        31.1728   23.1080    0.0106 H         1 UNK         0.1562 
     84 H84        32.9300   24.0865   -1.5665 H         1 UNK         0.0748 
     85 H85        33.8584   25.4726   -1.0638 H         1 UNK         0.0748 
     86 H86        33.0031   27.9816   -1.4370 H         1 UNK         0.0940 
     87 H87        32.3798   27.5606    0.1411 H         1 UNK         0.0940 
     88 H88        30.7463   28.8584   -2.1079 H         1 UNK         0.0703 
     89 H89        29.8108   27.4578    0.0827 H         1 UNK         0.3081 
     90 H90        27.1068   29.0205    1.2522 H         1 UNK         0.0719 
     91 H91        26.5655   27.4712   -1.3359 H         1 UNK         0.0809 
     92 H92        25.4302   27.6663    0.0003 H         1 UNK         0.0809 
     93 H93        25.9361   29.0627   -0.9340 H         1 UNK         0.0809 
     94 H94        27.6448   26.2404    0.4968 H         1 UNK         0.2990 
     95 H95        29.6758   25.2287    2.1343 H         1 UNK         0.0690 
     96 H96        29.2325   24.2320    4.4020 H         1 UNK         0.0788 
     97 H97        28.1193   25.5547    4.7511 H         1 UNK         0.0788 
     98 H98        29.8269   25.8800    4.4879 H         1 UNK         0.0788 
     99 H99        28.0907   23.8515    1.3992 H         1 UNK         0.2993 
    100 H100       24.8091   23.0389    2.3872 H         1 UNK         0.0949 
    101 H101       25.8026   24.1303   -0.2983 H         1 UNK         0.0767 
    102 H102       24.3737   23.1287   -0.0529 H         1 UNK         0.0767 
    103 H103       24.4442   24.7461    0.6285 H         1 UNK         0.0767 
    104 H104       25.9299   21.2134    1.9615 H         1 UNK         0.3013 
    105 H105       31.0650   30.9748   -2.3173 H         1 UNK         0.3121 
    106 H106       31.7661   33.0375   -2.1651 H         1 UNK         0.0774 
    107 H107       34.0244   32.1624   -1.6884 H         1 UNK         0.0815 
    108 H108       33.7534   33.6646   -0.8196 H         1 UNK         0.0815 
    109 H109       33.6884   32.1363    0.0402 H         1 UNK         0.0815 
    110 H110       31.3517   31.8530    1.1969 H         1 UNK         0.2987 
    111 H111       29.2898   33.8578    1.7090 H         1 UNK         0.0949 
    112 H112       30.3859   34.5869    3.8706 H         1 UNK         0.0806 
    113 H113       31.8575   33.7458    3.3962 H         1 UNK         0.0806 
    114 H114       31.2866   35.1229    2.4602 H         1 UNK         0.0806 
    115 H115       27.7291   32.8986    2.8740 H         1 UNK         0.3010 
    116 H116       27.6281   30.1486    3.1627 H         1 UNK         0.0829 
    117 H117       25.6241   31.5674    2.9110 H         1 UNK         0.0813 
    118 H118       25.4718   30.5825    4.3560 H         1 UNK         0.0813 
    119 H119       25.8907   32.2836    4.5022 H         1 UNK         0.0813 
    120 H120       28.4385   28.7779    4.5448 H         1 UNK         0.3038 
    121 H121       29.1611   27.6846    6.2880 H         1 UNK         0.0769 
    122 H122       28.5166   28.2454    8.6080 H         1 UNK         0.0811 
    123 H123       27.1356   28.4171    7.5366 H         1 UNK         0.0811 
    124 H124       27.9901   29.8464    8.1176 H         1 UNK         0.0811 
    125 H125       30.0996   31.0500    6.1769 H         1 UNK         0.3204 
    126 H126       32.5139   30.8305    7.7424 H         1 UNK         0.0748 
    127 H127       31.6331   32.8662    5.6256 H         1 UNK         0.0771 
    128 H128       31.4091   33.0076    7.3668 H         1 UNK         0.0771 
    129 H129       33.0265   33.0566    6.6836 H         1 UNK         0.0771 
    130 H130       31.7395   30.2086    4.3390 H         1 UNK         0.2980 
    131 H131       32.7707   29.1741    2.7268 H         1 UNK         0.0545 
    132 H132       33.4452   32.1292    3.4718 H         1 UNK         0.3459 
    133 H133       34.7839   32.4777    2.4027 H         1 UNK         0.3459 
    134 H134       35.0991   28.4093    4.5426 H         1 UNK         0.0616 
    135 H135       34.7559   27.7630    2.9609 H         1 UNK         0.0616 
    136 H136       35.0451   25.5731    3.6716 H         1 UNK         0.0634 
    137 H137       34.1026   24.6772    4.8263 H         1 UNK         0.0634 
@<TRIPOS>BOND
     1    1    2 1    
     2    1   72 1    
     3    1   73 1    
     4    1   74 1    
     5    2    3 2    
     6    2    4 am   BACKBONE|DICT|INTERRES
     7    4    5 1    
     8    4   75 1    
     9    5    6 1    
    10    5   35 1    
    11    5   76 1    
    12    6    7 1    
    13    6   77 1    
    14    6   78 1    
    15    7    8 1    
    16    8    9 1    
    17    8   79 1    
    18    8   80 1    
    19    9   10 ar   
    20    9   14 ar   
    21   10   11 ar   
    22   10   81 1    
    23   11   12 ar   
    24   11   71 1    
    25   12   13 ar   
    26   12   82 1    
    27   13   14 ar   
    28   13   15 1    
    29   14   83 1    
    30   15   16 1    
    31   15   84 1    
    32   15   85 1    
    33   16   17 1    
    34   17   18 1    
    35   17   86 1    
    36   17   87 1    
    37   18   19 1    
    38   18   37 1    
    39   18   88 1    
    40   19   20 am   BACKBONE|DICT|INTERRES
    41   19   89 1    
    42   20   21 2    
    43   20   22 1    
    44   22   23 1    
    45   22   24 1    
    46   22   90 1    
    47   23   91 1    
    48   23   92 1    
    49   23   93 1    
    50   24   25 am   BACKBONE|DICT|INTERRES
    51   24   94 1    
    52   25   26 2    
    53   25   27 1    
    54   27   28 1    
    55   27   29 1    
    56   27   95 1    
    57   28   96 1    
    58   28   97 1    
    59   28   98 1    
    60   29   30 am   BACKBONE|DICT|INTERRES
    61   29   99 1    
    62   30   31 2    
    63   30   32 1    
    64   32   33 1    
    65   32   34 1    
    66   32  100 1    
    67   33  101 1    
    68   33  102 1    
    69   33  103 1    
    70   34   35 am   BACKBONE|DICT|INTERRES
    71   34  104 1    
    72   35   36 2    
    73   37   38 2    
    74   37   39 am   BACKBONE|DICT|INTERRES
    75   39   40 1    
    76   39  105 1    
    77   40   41 1    
    78   40   42 1    
    79   40  106 1    
    80   41  107 1    
    81   41  108 1    
    82   41  109 1    
    83   42   43 2    
    84   42   44 am   BACKBONE|DICT|INTERRES
    85   44   45 1    
    86   44  110 1    
    87   45   46 1    
    88   45   47 1    
    89   45  111 1    
    90   46  112 1    
    91   46  113 1    
    92   46  114 1    
    93   47   48 2    
    94   47   49 am   BACKBONE|DICT|INTERRES
    95   49   50 1    
    96   49  115 1    
    97   50   51 1    
    98   50   52 1    
    99   50  116 1    
   100   51  117 1    
   101   51  118 1    
   102   51  119 1    
   103   52   53 2    
   104   52   54 am   BACKBONE|DICT|INTERRES
   105   54   55 1    
   106   54  120 1    
   107   55   56 1    
   108   55   57 1    
   109   55  121 1    
   110   56  122 1    
   111   56  123 1    
   112   56  124 1    
   113   57   58 2    
   114   57   59 am   BACKBONE|DICT|INTERRES
   115   59   60 1    
   116   59  125 1    
   117   60   61 1    
   118   60   62 1    
   119   60  126 1    
   120   61  127 1    
   121   61  128 1    
   122   61  129 1    
   123   62   63 2    
   124   62   64 am   BACKBONE|DICT|INTERRES
   125   64   65 1    
   126   64  130 1    
   127   65   66 1    
   128   65   69 1    
   129   65  131 1    
   130   66   67 am   BACKBONE|DICT|INTERRES
   131   66   68 2    
   132   67  132 1    
   133   67  133 1    
   134   69   70 1    
   135   69  134 1    
   136   69  135 1    
   137   70   71 1    
   138   71  136 1    
   139   71  137 1    
@<TRIPOS>SUBSTRUCTURE
     1 UNK         1 GROUP             0       ****    0 ROOT    
