@<TRIPOS>MOLECULE
3R136
137   139    1
SMALL
USER_CHARGES


@<TRIPOS>ATOM
      1 CA         29.8484   25.6089    3.7465 C.3       0 UNK        -0.1979 
      2 C          28.9388   24.3987    3.6235 C.2       0 UNK         0.4864 
      3 O          27.9547   24.3024    4.3573 O.2       0 UNK        -0.5359 
      4 N          29.2810   23.4616    2.7287 N.am      1 UNK        -0.4318 
      5 CA         28.6018   22.1711    2.5771 C.3       1 UNK         0.0824 
      6 C6         29.4138   21.1751    1.7151 C.3       12 UNK        -0.0944 
      7 S7         30.9575   20.6700    2.5456 S.3       12 UNK        -0.2672 
      8 C8         32.2298   21.1368    1.3321 C.3       12 UNK         0.0333 
      9 C9         32.5078   22.6330    1.3317 C.ar      12 UNK        -0.0807 
     10 C10        33.2446   23.2077    2.3716 C.ar      12 UNK        -0.0894 
     11 C11        33.5609   24.5691    2.3512 C.ar      12 UNK        -0.0804 
     12 C12        33.1194   25.3613    1.2875 C.ar      12 UNK        -0.0824 
     13 C13        32.3798   24.8000    0.2418 C.ar      12 UNK        -0.0762 
     14 C14        32.0800   23.4333    0.2686 C.ar      12 UNK        -0.0782 
     15 C15        31.9546   25.6650   -0.9394 C.3       12 UNK         0.0230 
     16 S16        30.1781   25.5292   -1.3152 S.3       12 UNK        -0.2608 
     17 C17        29.4308   26.2812    0.1675 C.3       12 UNK        -0.0989 
     18 CA         28.8591   27.6932   -0.0996 C.3       5 UNK         0.0716 
     19 N          27.8728   27.7071   -1.1794 N.am      5 UNK        -0.4135 
     20 C          27.4769   28.8140   -1.8238 C.2       4 UNK         0.5031 
     21 O          27.9316   29.9346   -1.5863 O.2       4 UNK        -0.5229 
     22 CA         26.4222   28.6725   -2.9370 C.3       4 UNK         0.0329 
     23 CB         27.0663   28.8931   -4.3163 C.3       4 UNK        -0.2001 
     24 N          25.7203   27.3883   -2.9461 N.am      4 UNK        -0.4303 
     25 C          24.8073   26.9961   -2.0483 C.2       3 UNK         0.5044 
     26 O          24.4543   27.6785   -1.0854 O.2       3 UNK        -0.5152 
     27 CA         24.1650   25.6119   -2.2627 C.3       3 UNK         0.0319 
     28 CB         24.5216   24.9478   -3.6139 C.3       3 UNK        -0.2001 
     29 N          24.4433   24.6839   -1.1622 N.am      3 UNK        -0.4354 
     30 C          25.6446   24.3068   -0.7000 C.2       2 UNK         0.4964 
     31 O          26.7203   24.7728   -1.0834 O.2       2 UNK        -0.5047 
     32 CA         25.6252   23.1619    0.3195 C.3       2 UNK         0.0288 
     33 CB         25.2445   21.8382   -0.3823 C.3       2 UNK        -0.2113 
     34 N          26.9297   23.0288    0.9711 N.am      2 UNK        -0.4145 
     35 C          27.1512   22.2912    2.0683 C.2       1 UNK         0.5006 
     36 O          26.2590   21.6956    2.6767 O.2       1 UNK        -0.5103 
     37 C          28.2362   28.2821    1.1790 C.2       5 UNK         0.5055 
     38 O          27.4411   27.6063    1.8355 O.2       5 UNK        -0.5220 
     39 N          28.6026   29.5267    1.5050 N.am      6 UNK        -0.4450 
     40 CA         28.2424   30.1883    2.7581 C.3       6 UNK         0.0367 
     41 CB         28.4863   31.6994    2.6180 C.3       6 UNK        -0.1929 
     42 C          29.0487   29.6142    3.9347 C.2       6 UNK         0.5070 
     43 O          30.1945   29.2003    3.7524 O.2       6 UNK        -0.5237 
     44 N          28.4476   29.6345    5.1300 N.am      7 UNK        -0.4739 
     45 CA         29.0479   29.1381    6.3751 C.3       7 UNK         0.0276 
     46 CB         27.9262   28.8817    7.3959 C.3       7 UNK        -0.1927 
     47 C          30.1255   30.0667    6.9717 C.2       7 UNK         0.5013 
     48 O          30.7814   29.6766    7.9380 O.2       7 UNK        -0.5193 
     49 N          30.2807   31.2674    6.4049 N.am      8 UNK        -0.4253 
     50 CA         31.3101   32.2485    6.7268 C.3       8 UNK         0.0242 
     51 CB         30.6806   33.4033    7.5232 C.3       8 UNK        -0.2000 
     52 C          31.9011   32.7553    5.4070 C.2       8 UNK         0.4948 
     53 O          31.2149   32.7175    4.3814 O.2       8 UNK        -0.5275 
     54 N          33.1573   33.2186    5.4521 N.am      9 UNK        -0.4246 
     55 CA         33.9780   33.7464    4.3498 C.3       9 UNK         0.0261 
     56 CB         33.3480   35.0030    3.7153 C.3       9 UNK        -0.1959 
     57 C          34.3446   32.6977    3.2831 C.2       9 UNK         0.5033 
     58 O          35.5311   32.4904    3.0264 O.2       9 UNK        -0.5390 
     59 N          33.3339   32.0404    2.7012 N.am      10 UNK        -0.4215 
     60 CA         33.4854   30.9128    1.7759 C.3       10 UNK         0.0240 
     61 CB         32.1779   30.7217    0.9909 C.3       10 UNK        -0.1982 
     62 C          33.8705   29.6068    2.4946 C.2       10 UNK         0.4970 
     63 O          34.4463   28.7199    1.8643 O.2       10 UNK        -0.4916 
     64 N          33.5505   29.5175    3.7884 N.am      11 UNK        -0.4279 
     65 CA         33.8423   28.4000    4.6859 C.3       11 UNK         0.1003 
     66 C          33.9744   28.9063    6.1499 C.2       11 UNK         0.5709 
     67 N          34.1109   28.0101    7.1160 N.am      11 UNK        -0.7358 
     68 O          33.9820   30.1071    6.4185 O.2       11 UNK        -0.4999 
     69 C69        32.8264   27.2377    4.4906 C.3       12 UNK        -0.0954 
     70 S70        33.4951   25.6014    4.9385 S.3       12 UNK        -0.2268 
     71 C71        34.4368   25.1635    3.4446 C.3       12 UNK         0.0203 
     72 H72        30.7425   25.5072    3.1330 H         1 UNK         0.0888 
     73 H73        30.1655   25.7288    4.7817 H         1 UNK         0.0888 
     74 H74        29.3223   26.5138    3.4483 H         1 UNK         0.0888 
     75 H75        30.1238   23.5765    2.1832 H         1 UNK         0.3017 
     76 H76        28.5280   21.7424    3.5796 H         1 UNK         0.0873 
     77 H77        28.8394   20.2641    1.5334 H         1 UNK         0.0745 
     78 H78        29.6289   21.5982    0.7323 H         1 UNK         0.0745 
     79 H79        33.1515   20.6060    1.5749 H         1 UNK         0.0705 
     80 H80        31.9359   20.7895    0.3402 H         1 UNK         0.0705 
     81 H81        33.5921   22.5884    3.1877 H         1 UNK         0.1334 
     82 H82        33.3763   26.4114    1.2622 H         1 UNK         0.1417 
     83 H83        31.5274   22.9923   -0.5502 H         1 UNK         0.1562 
     84 H84        32.5228   25.3588   -1.8186 H         1 UNK         0.0748 
     85 H85        32.1979   26.7146   -0.7656 H         1 UNK         0.0748 
     86 H86        30.1779   26.3302    0.9598 H         1 UNK         0.0940 
     87 H87        28.6517   25.6091    0.5295 H         1 UNK         0.0940 
     88 H88        29.6965   28.3274   -0.4002 H         1 UNK         0.0703 
     89 H89        27.4448   26.8156   -1.4013 H         1 UNK         0.3081 
     90 H90        25.6820   29.4595   -2.7775 H         1 UNK         0.0719 
     91 H91        27.8138   28.1306   -4.5392 H         1 UNK         0.0809 
     92 H92        26.3204   28.8772   -5.1112 H         1 UNK         0.0809 
     93 H93        27.5658   29.8619   -4.3646 H         1 UNK         0.0809 
     94 H94        25.9572   26.7483   -3.6905 H         1 UNK         0.2990 
     95 H95        23.0869   25.7802   -2.2577 H         1 UNK         0.0690 
     96 H96        23.9710   24.0160   -3.7447 H         1 UNK         0.0788 
     97 H97        25.5834   24.7102   -3.6915 H         1 UNK         0.0788 
     98 H98        24.2566   25.5896   -4.4554 H         1 UNK         0.0788 
     99 H99        23.6257   24.2581   -0.7479 H         1 UNK         0.2993 
    100 H100       24.8796   23.4028    1.0806 H         1 UNK         0.0949 
    101 H101       24.2867   21.9187   -0.8977 H         1 UNK         0.0767 
    102 H102       25.9902   21.5528   -1.1256 H         1 UNK         0.0767 
    103 H103       25.1494   21.0152    0.3258 H         1 UNK         0.0767 
    104 H104       27.6843   23.5306    0.5204 H         1 UNK         0.3013 
    105 H105       29.2343   30.0238    0.8946 H         1 UNK         0.3121 
    106 H106       27.1790   30.0224    2.9447 H         1 UNK         0.0774 
    107 H107       27.8870   32.1244    1.8126 H         1 UNK         0.0815 
    108 H108       29.5326   31.9245    2.4104 H         1 UNK         0.0815 
    109 H109       28.2180   32.2285    3.5333 H         1 UNK         0.0815 
    110 H110       27.5103   30.0057    5.1996 H         1 UNK         0.2987 
    111 H111       29.5374   28.1850    6.1611 H         1 UNK         0.0949 
    112 H112       28.3265   28.4671    8.3222 H         1 UNK         0.0806 
    113 H113       27.1974   28.1665    7.0140 H         1 UNK         0.0806 
    114 H114       27.3964   29.7999    7.6528 H         1 UNK         0.0806 
    115 H115       29.7585   31.4715    5.5632 H         1 UNK         0.3010 
    116 H116       32.1047   31.7875    7.3171 H         1 UNK         0.0829 
    117 H117       30.2420   33.0465    8.4553 H         1 UNK         0.0813 
    118 H118       31.4278   34.1542    7.7830 H         1 UNK         0.0813 
    119 H119       29.8961   33.9049    6.9548 H         1 UNK         0.0813 
    120 H120       33.6376   33.1608    6.3403 H         1 UNK         0.3038 
    121 H121       34.9165   34.0584    4.8113 H         1 UNK         0.0769 
    122 H122       32.3998   34.7876    3.2220 H         1 UNK         0.0811 
    123 H123       34.0119   35.4315    2.9634 H         1 UNK         0.0811 
    124 H124       33.1665   35.7743    4.4637 H         1 UNK         0.0811 
    125 H125       32.3940   32.2640    3.0256 H         1 UNK         0.3204 
    126 H126       34.2815   31.1495    1.0669 H         1 UNK         0.0748 
    127 H127       31.9042   31.6250    0.4454 H         1 UNK         0.0771 
    128 H128       32.2744   29.9165    0.2611 H         1 UNK         0.0771 
    129 H129       31.3532   30.4634    1.6541 H         1 UNK         0.0771 
    130 H130       33.1068   30.3052    4.2380 H         1 UNK         0.2980 
    131 H131       34.8402   28.0479    4.4200 H         1 UNK         0.0545 
    132 H132       34.1989   28.3228    8.0697 H         1 UNK         0.3459 
    133 H133       34.0962   27.0242    6.9016 H         1 UNK         0.3459 
    134 H134       31.9221   27.4220    5.0726 H         1 UNK         0.0616 
    135 H135       32.4959   27.1868    3.4530 H         1 UNK         0.0616 
    136 H136       34.9714   26.0391    3.0735 H         1 UNK         0.0634 
    137 H137       35.2047   24.4401    3.7223 H         1 UNK         0.0634 
@<TRIPOS>BOND
     1    1    2 1    
     2    1   72 1    
     3    1   73 1    
     4    1   74 1    
     5    2    3 2    
     6    2    4 am   BACKBONE|DICT|INTERRES
     7    4    5 1    
     8    4   75 1    
     9    5    6 1    
    10    5   35 1    
    11    5   76 1    
    12    6    7 1    
    13    6   77 1    
    14    6   78 1    
    15    7    8 1    
    16    8    9 1    
    17    8   79 1    
    18    8   80 1    
    19    9   10 ar   
    20    9   14 ar   
    21   10   11 ar   
    22   10   81 1    
    23   11   12 ar   
    24   11   71 1    
    25   12   13 ar   
    26   12   82 1    
    27   13   14 ar   
    28   13   15 1    
    29   14   83 1    
    30   15   16 1    
    31   15   84 1    
    32   15   85 1    
    33   16   17 1    
    34   17   18 1    
    35   17   86 1    
    36   17   87 1    
    37   18   19 1    
    38   18   37 1    
    39   18   88 1    
    40   19   20 am   BACKBONE|DICT|INTERRES
    41   19   89 1    
    42   20   21 2    
    43   20   22 1    
    44   22   23 1    
    45   22   24 1    
    46   22   90 1    
    47   23   91 1    
    48   23   92 1    
    49   23   93 1    
    50   24   25 am   BACKBONE|DICT|INTERRES
    51   24   94 1    
    52   25   26 2    
    53   25   27 1    
    54   27   28 1    
    55   27   29 1    
    56   27   95 1    
    57   28   96 1    
    58   28   97 1    
    59   28   98 1    
    60   29   30 am   BACKBONE|DICT|INTERRES
    61   29   99 1    
    62   30   31 2    
    63   30   32 1    
    64   32   33 1    
    65   32   34 1    
    66   32  100 1    
    67   33  101 1    
    68   33  102 1    
    69   33  103 1    
    70   34   35 am   BACKBONE|DICT|INTERRES
    71   34  104 1    
    72   35   36 2    
    73   37   38 2    
    74   37   39 am   BACKBONE|DICT|INTERRES
    75   39   40 1    
    76   39  105 1    
    77   40   41 1    
    78   40   42 1    
    79   40  106 1    
    80   41  107 1    
    81   41  108 1    
    82   41  109 1    
    83   42   43 2    
    84   42   44 am   BACKBONE|DICT|INTERRES
    85   44   45 1    
    86   44  110 1    
    87   45   46 1    
    88   45   47 1    
    89   45  111 1    
    90   46  112 1    
    91   46  113 1    
    92   46  114 1    
    93   47   48 2    
    94   47   49 am   BACKBONE|DICT|INTERRES
    95   49   50 1    
    96   49  115 1    
    97   50   51 1    
    98   50   52 1    
    99   50  116 1    
   100   51  117 1    
   101   51  118 1    
   102   51  119 1    
   103   52   53 2    
   104   52   54 am   BACKBONE|DICT|INTERRES
   105   54   55 1    
   106   54  120 1    
   107   55   56 1    
   108   55   57 1    
   109   55  121 1    
   110   56  122 1    
   111   56  123 1    
   112   56  124 1    
   113   57   58 2    
   114   57   59 am   BACKBONE|DICT|INTERRES
   115   59   60 1    
   116   59  125 1    
   117   60   61 1    
   118   60   62 1    
   119   60  126 1    
   120   61  127 1    
   121   61  128 1    
   122   61  129 1    
   123   62   63 2    
   124   62   64 am   BACKBONE|DICT|INTERRES
   125   64   65 1    
   126   64  130 1    
   127   65   66 1    
   128   65   69 1    
   129   65  131 1    
   130   66   67 am   BACKBONE|DICT|INTERRES
   131   66   68 2    
   132   67  132 1    
   133   67  133 1    
   134   69   70 1    
   135   69  134 1    
   136   69  135 1    
   137   70   71 1    
   138   71  136 1    
   139   71  137 1    
@<TRIPOS>SUBSTRUCTURE
     1 UNK         1 GROUP             0       ****    0 ROOT    
