@<TRIPOS>MOLECULE
3R136
137   139    1
SMALL
USER_CHARGES


@<TRIPOS>ATOM
      1 CA         28.2369   22.3183   -5.1021 C.3       0 UNK        -0.1979 
      2 C          28.1248   22.6721   -3.6274 C.2       0 UNK         0.4864 
      3 O          27.1096   23.2299   -3.2054 O.2       0 UNK        -0.5359 
      4 N          29.1564   22.3591   -2.8311 N.am      1 UNK        -0.4318 
      5 CA         29.1624   22.5992   -1.3855 C.3       1 UNK         0.0824 
      6 C6         30.5778   22.4671   -0.7645 C.3       12 UNK        -0.0944 
      7 S7         30.8415   23.7115    0.5422 S.3       12 UNK        -0.2672 
      8 C8         30.5534   22.7353    2.0486 C.3       12 UNK         0.0333 
      9 C9         30.2512   23.6521    3.2222 C.ar      12 UNK        -0.0807 
     10 C10        31.2857   24.1280    4.0322 C.ar      12 UNK        -0.0894 
     11 C11        31.0125   24.9935    5.0962 C.ar      12 UNK        -0.0804 
     12 C12        29.6919   25.3778    5.3493 C.ar      12 UNK        -0.0824 
     13 C13        28.6459   24.8948    4.5567 C.ar      12 UNK        -0.0762 
     14 C14        28.9335   24.0313    3.4950 C.ar      12 UNK        -0.0782 
     15 C15        27.2055   25.2821    4.8739 C.3       12 UNK         0.0230 
     16 S16        26.3304   26.0250    3.4585 S.3       12 UNK        -0.2608 
     17 C17        27.3536   27.4937    3.1061 C.3       12 UNK        -0.0989 
     18 CA         28.1771   27.3462    1.8000 C.3       5 UNK         0.0716 
     19 N          27.3365   27.2860    0.6049 N.am      5 UNK        -0.4135 
     20 C          27.0401   26.1752   -0.0730 C.2       4 UNK         0.5031 
     21 O          27.3864   25.0448    0.2787 O.2       4 UNK        -0.5229 
     22 CA         26.2711   26.3634   -1.3918 C.3       4 UNK         0.0329 
     23 CB         27.2485   26.6924   -2.5323 C.3       4 UNK        -0.2001 
     24 N          25.5546   25.1348   -1.7298 N.am      4 UNK        -0.4303 
     25 C          24.3147   24.8341   -1.3203 C.2       3 UNK         0.5044 
     26 O          23.5482   25.6379   -0.7882 O.2       3 UNK        -0.5152 
     27 CA         23.8918   23.3632   -1.4644 C.3       3 UNK         0.0319 
     28 CB         23.6748   22.9641   -2.9338 C.3       3 UNK        -0.2001 
     29 N          24.9176   22.5211   -0.8449 N.am      3 UNK        -0.4354 
     30 C          24.9456   22.2407    0.4672 C.2       2 UNK         0.4964 
     31 O          23.9791   22.3897    1.2159 O.2       2 UNK        -0.5047 
     32 CA         26.2816   21.7902    1.0784 C.3       2 UNK         0.0288 
     33 CB         26.3137   20.2803    1.3911 C.3       2 UNK        -0.2113 
     34 N          27.4354   22.2806    0.3115 N.am      2 UNK        -0.4145 
     35 C          28.1274   21.6993   -0.6762 C.2       1 UNK         0.5006 
     36 O          27.9811   20.5337   -1.0510 O.2       1 UNK        -0.5103 
     37 C          29.1026   28.5544    1.6129 C.2       5 UNK         0.5055 
     38 O          28.6456   29.5908    1.1220 O.2       5 UNK        -0.5220 
     39 N          30.3669   28.4348    2.0369 N.am      6 UNK        -0.4450 
     40 CA         31.3750   29.4985    1.9545 C.3       6 UNK         0.0367 
     41 CB         32.7702   28.8662    1.8177 C.3       6 UNK        -0.1929 
     42 C          31.2830   30.4769    3.1422 C.2       6 UNK         0.5070 
     43 O          32.3002   30.7923    3.7671 O.2       6 UNK        -0.5237 
     44 N          30.0596   30.9326    3.4429 N.am      7 UNK        -0.4739 
     45 CA         29.7388   31.8967    4.4964 C.3       7 UNK         0.0276 
     46 CB         28.2133   32.0601    4.5866 C.3       7 UNK        -0.1927 
     47 C          30.4217   33.2446    4.2258 C.2       7 UNK         0.5013 
     48 O          30.2748   33.7809    3.1254 O.2       7 UNK        -0.5193 
     49 N          31.2036   33.7270    5.2017 N.am      8 UNK        -0.4253 
     50 CA         32.0816   34.9097    5.1733 C.3       8 UNK         0.0242 
     51 CB         31.2829   36.2045    4.9235 C.3       8 UNK        -0.2000 
     52 C          33.2828   34.8041    4.2096 C.2       8 UNK         0.4948 
     53 O          34.3397   35.3564    4.5168 O.2       8 UNK        -0.5275 
     54 N          33.1166   34.1008    3.0817 N.am      9 UNK        -0.4246 
     55 CA         34.1451   33.8211    2.0793 C.3       9 UNK         0.0261 
     56 CB         33.4932   33.1683    0.8493 C.3       9 UNK        -0.1959 
     57 C          35.2876   32.9426    2.6151 C.2       9 UNK         0.5033 
     58 O          36.4463   33.2016    2.2849 O.2       9 UNK        -0.5390 
     59 N          34.9499   31.9368    3.4315 N.am      10 UNK        -0.4215 
     60 CA         35.9011   31.0541    4.0969 C.3       10 UNK         0.0240 
     61 CB         36.3502   29.9188    3.1491 C.3       10 UNK        -0.1982 
     62 C          35.2892   30.5779    5.4204 C.2       10 UNK         0.4970 
     63 O          35.2354   31.3600    6.3702 O.2       10 UNK        -0.4916 
     64 N          34.8695   29.3093    5.4694 N.am      11 UNK        -0.4279 
     65 CA         34.3697   28.6137    6.6635 C.3       11 UNK         0.1003 
     66 C          33.0080   29.1054    7.2360 C.2       11 UNK         0.5709 
     67 N          32.2261   29.9055    6.5236 N.am      11 UNK        -0.7358 
     68 O          32.6589   28.7563    8.3612 O.2       11 UNK        -0.4999 
     69 C69        34.3987   27.0773    6.4540 C.3       12 UNK        -0.0954 
     70 S70        33.3312   26.5131    5.0827 S.3       12 UNK        -0.2268 
     71 C71        32.1383   25.4871    5.9926 C.3       12 UNK         0.0203 
     72 H72        27.4340   21.6382   -5.3850 H         1 UNK         0.0888 
     73 H73        28.1517   23.2187   -5.7098 H         1 UNK         0.0888 
     74 H74        29.1875   21.8389   -5.3352 H         1 UNK         0.0888 
     75 H75        29.9547   21.8697   -3.2091 H         1 UNK         0.3017 
     76 H76        28.8407   23.6364   -1.2751 H         1 UNK         0.0873 
     77 H77        30.7789   21.4608   -0.3904 H         1 UNK         0.0745 
     78 H78        31.3415   22.6563   -1.5206 H         1 UNK         0.0745 
     79 H79        31.4323   22.1232    2.2564 H         1 UNK         0.0705 
     80 H80        29.7250   22.0423    1.8995 H         1 UNK         0.0705 
     81 H81        32.3066   23.8334    3.8301 H         1 UNK         0.1334 
     82 H82        29.4766   26.0405    6.1766 H         1 UNK         0.1417 
     83 H83        28.1292   23.6679    2.8715 H         1 UNK         0.1562 
     84 H84        27.1634   25.9769    5.7143 H         1 UNK         0.0748 
     85 H85        26.6643   24.3890    5.1889 H         1 UNK         0.0748 
     86 H86        28.0109   27.6809    3.9578 H         1 UNK         0.0940 
     87 H87        26.6912   28.3596    3.0453 H         1 UNK         0.0940 
     88 H88        28.8012   26.4518    1.8631 H         1 UNK         0.0703 
     89 H89        27.0838   28.1909    0.2296 H         1 UNK         0.3081 
     90 H90        25.5635   27.1878   -1.2802 H         1 UNK         0.0719 
     91 H91        27.7806   27.6246   -2.3389 H         1 UNK         0.0809 
     92 H92        27.9974   25.9092   -2.6598 H         1 UNK         0.0809 
     93 H93        26.7243   26.8093   -3.4809 H         1 UNK         0.0809 
     94 H94        26.1116   24.4089   -2.1762 H         1 UNK         0.2990 
     95 H95        22.9404   23.2302   -0.9444 H         1 UNK         0.0690 
     96 H96        24.5702   23.0974   -3.5395 H         1 UNK         0.0788 
     97 H97        22.8874   23.5692   -3.3848 H         1 UNK         0.0788 
     98 H98        23.3691   21.9211   -3.0171 H         1 UNK         0.0788 
     99 H99        25.7571   22.3658   -1.3868 H         1 UNK         0.2993 
    100 H100       26.3496   22.3077    2.0363 H         1 UNK         0.0949 
    101 H101       26.1205   19.6749    0.5052 H         1 UNK         0.0767 
    102 H102       27.2748   19.9788    1.8080 H         1 UNK         0.0767 
    103 H103       25.5471   20.0243    2.1234 H         1 UNK         0.0767 
    104 H104       27.6004   23.2816    0.4395 H         1 UNK         0.3013 
    105 H105       30.6602   27.5713    2.4732 H         1 UNK         0.3121 
    106 H106       31.1975   30.0857    1.0507 H         1 UNK         0.0774 
    107 H107       33.5218   29.6345    1.6354 H         1 UNK         0.0815 
    108 H108       33.0596   28.3259    2.7187 H         1 UNK         0.0815 
    109 H109       32.8132   28.1709    0.9793 H         1 UNK         0.0815 
    110 H110       29.3025   30.6616    2.8266 H         1 UNK         0.2987 
    111 H111       30.0982   31.4928    5.4440 H         1 UNK         0.0949 
    112 H112       27.7249   31.1124    4.8146 H         1 UNK         0.0806 
    113 H113       27.9420   32.7626    5.3758 H         1 UNK         0.0806 
    114 H114       27.7923   32.4387    3.6541 H         1 UNK         0.0806 
    115 H115       31.2760   33.1792    6.0482 H         1 UNK         0.3010 
    116 H116       32.5049   34.9786    6.1769 H         1 UNK         0.0829 
    117 H117       30.4701   36.3144    5.6413 H         1 UNK         0.0813 
    118 H118       31.9248   37.0807    5.0244 H         1 UNK         0.0813 
    119 H119       30.8534   36.2352    3.9218 H         1 UNK         0.0813 
    120 H120       32.1821   33.7475    2.8985 H         1 UNK         0.3038 
    121 H121       34.5766   34.7763    1.7729 H         1 UNK         0.0769 
    122 H122       32.7352   33.8175    0.4106 H         1 UNK         0.0811 
    123 H123       34.2351   32.9678    0.0750 H         1 UNK         0.0811 
    124 H124       33.0177   32.2194    1.0991 H         1 UNK         0.0811 
    125 H125       33.9680   31.7709    3.6446 H         1 UNK         0.3204 
    126 H126       36.7869   31.6325    4.3686 H         1 UNK         0.0748 
    127 H127       36.8605   30.3195    2.2731 H         1 UNK         0.0771 
    128 H128       37.0535   29.2487    3.6455 H         1 UNK         0.0771 
    129 H129       35.5143   29.3185    2.7932 H         1 UNK         0.0771 
    130 H130       34.9146   28.7511    4.6307 H         1 UNK         0.2980 
    131 H131       35.0922   28.8282    7.4533 H         1 UNK         0.0545 
    132 H132       32.4759   30.1806    5.5793 H         1 UNK         0.3459 
    133 H133       31.3522   30.1988    6.9251 H         1 UNK         0.3459 
    134 H134       35.4181   26.7586    6.2311 H         1 UNK         0.0616 
    135 H135       34.1310   26.5599    7.3771 H         1 UNK         0.0616 
    136 H136       31.7390   26.0649    6.8280 H         1 UNK         0.0634 
    137 H137       32.6569   24.6300    6.4245 H         1 UNK         0.0634 
@<TRIPOS>BOND
     1    1    2 1    
     2    1   72 1    
     3    1   73 1    
     4    1   74 1    
     5    2    3 2    
     6    2    4 am   BACKBONE|DICT|INTERRES
     7    4    5 1    
     8    4   75 1    
     9    5    6 1    
    10    5   35 1    
    11    5   76 1    
    12    6    7 1    
    13    6   77 1    
    14    6   78 1    
    15    7    8 1    
    16    8    9 1    
    17    8   79 1    
    18    8   80 1    
    19    9   10 ar   
    20    9   14 ar   
    21   10   11 ar   
    22   10   81 1    
    23   11   12 ar   
    24   11   71 1    
    25   12   13 ar   
    26   12   82 1    
    27   13   14 ar   
    28   13   15 1    
    29   14   83 1    
    30   15   16 1    
    31   15   84 1    
    32   15   85 1    
    33   16   17 1    
    34   17   18 1    
    35   17   86 1    
    36   17   87 1    
    37   18   19 1    
    38   18   37 1    
    39   18   88 1    
    40   19   20 am   BACKBONE|DICT|INTERRES
    41   19   89 1    
    42   20   21 2    
    43   20   22 1    
    44   22   23 1    
    45   22   24 1    
    46   22   90 1    
    47   23   91 1    
    48   23   92 1    
    49   23   93 1    
    50   24   25 am   BACKBONE|DICT|INTERRES
    51   24   94 1    
    52   25   26 2    
    53   25   27 1    
    54   27   28 1    
    55   27   29 1    
    56   27   95 1    
    57   28   96 1    
    58   28   97 1    
    59   28   98 1    
    60   29   30 am   BACKBONE|DICT|INTERRES
    61   29   99 1    
    62   30   31 2    
    63   30   32 1    
    64   32   33 1    
    65   32   34 1    
    66   32  100 1    
    67   33  101 1    
    68   33  102 1    
    69   33  103 1    
    70   34   35 am   BACKBONE|DICT|INTERRES
    71   34  104 1    
    72   35   36 2    
    73   37   38 2    
    74   37   39 am   BACKBONE|DICT|INTERRES
    75   39   40 1    
    76   39  105 1    
    77   40   41 1    
    78   40   42 1    
    79   40  106 1    
    80   41  107 1    
    81   41  108 1    
    82   41  109 1    
    83   42   43 2    
    84   42   44 am   BACKBONE|DICT|INTERRES
    85   44   45 1    
    86   44  110 1    
    87   45   46 1    
    88   45   47 1    
    89   45  111 1    
    90   46  112 1    
    91   46  113 1    
    92   46  114 1    
    93   47   48 2    
    94   47   49 am   BACKBONE|DICT|INTERRES
    95   49   50 1    
    96   49  115 1    
    97   50   51 1    
    98   50   52 1    
    99   50  116 1    
   100   51  117 1    
   101   51  118 1    
   102   51  119 1    
   103   52   53 2    
   104   52   54 am   BACKBONE|DICT|INTERRES
   105   54   55 1    
   106   54  120 1    
   107   55   56 1    
   108   55   57 1    
   109   55  121 1    
   110   56  122 1    
   111   56  123 1    
   112   56  124 1    
   113   57   58 2    
   114   57   59 am   BACKBONE|DICT|INTERRES
   115   59   60 1    
   116   59  125 1    
   117   60   61 1    
   118   60   62 1    
   119   60  126 1    
   120   61  127 1    
   121   61  128 1    
   122   61  129 1    
   123   62   63 2    
   124   62   64 am   BACKBONE|DICT|INTERRES
   125   64   65 1    
   126   64  130 1    
   127   65   66 1    
   128   65   69 1    
   129   65  131 1    
   130   66   67 am   BACKBONE|DICT|INTERRES
   131   66   68 2    
   132   67  132 1    
   133   67  133 1    
   134   69   70 1    
   135   69  134 1    
   136   69  135 1    
   137   70   71 1    
   138   71  136 1    
   139   71  137 1    
@<TRIPOS>SUBSTRUCTURE
     1 UNK         1 GROUP             0       ****    0 ROOT    
