@<TRIPOS>MOLECULE
3R136
137   139    1
SMALL
USER_CHARGES


@<TRIPOS>ATOM
      1 CA         27.4797   24.2069   -2.6102 C.3       0 UNK        -0.1979 
      2 C          28.0819   24.1368   -1.2158 C.2       0 UNK         0.4864 
      3 O          27.5651   24.7775   -0.2985 O.2       0 UNK        -0.5359 
      4 N          29.1635   23.3647   -1.0440 N.am      1 UNK        -0.4318 
      5 CA         29.8752   23.1834    0.2254 C.3       1 UNK         0.0824 
      6 C6         31.1644   22.3411    0.0553 C.3       12 UNK        -0.0944 
      7 S7         32.4806   23.3315   -0.7314 S.3       12 UNK        -0.2672 
      8 C8         33.5736   23.7261    0.6801 C.3       12 UNK         0.0333 
      9 C9         32.8116   24.2427    1.8956 C.ar      12 UNK        -0.0807 
     10 C10        32.7929   23.4974    3.0793 C.ar      12 UNK        -0.0894 
     11 C11        32.0661   23.9412    4.1873 C.ar      12 UNK        -0.0804 
     12 C12        31.3371   25.1296    4.0996 C.ar      12 UNK        -0.0824 
     13 C13        31.3508   25.8844    2.9240 C.ar      12 UNK        -0.0762 
     14 C14        32.1081   25.4498    1.8325 C.ar      12 UNK        -0.0782 
     15 C15        30.5392   27.1644    2.8391 C.3       12 UNK         0.0230 
     16 S16        28.7663   26.8003    2.6682 S.3       12 UNK        -0.2608 
     17 C17        28.0783   28.4875    2.6861 C.3       12 UNK        -0.0989 
     18 CA         27.5277   28.8984    1.2981 C.3       5 UNK         0.0716 
     19 N          26.3884   28.0663    0.9000 N.am      5 UNK        -0.4135 
     20 C          25.9407   27.9002   -0.3504 C.2       4 UNK         0.5031 
     21 O          26.4574   28.4322   -1.3363 O.2       4 UNK        -0.5229 
     22 CA         24.7240   26.9784   -0.5113 C.3       4 UNK         0.0329 
     23 CB         24.3184   26.7594   -1.9824 C.3       4 UNK        -0.2001 
     24 N          25.0028   25.6913    0.1227 N.am      4 UNK        -0.4303 
     25 C          24.0978   24.9195    0.7361 C.2       3 UNK         0.5044 
     26 O          22.9160   25.2369    0.8763 O.2       3 UNK        -0.5152 
     27 CA         24.5727   23.5665    1.2869 C.3       3 UNK         0.0319 
     28 CB         24.5321   22.4886    0.1903 C.3       3 UNK        -0.2001 
     29 N          25.9212   23.6303    1.8586 N.am      3 UNK        -0.4354 
     30 C          26.2831   23.0665    3.0214 C.2       2 UNK         0.4964 
     31 O          25.4982   22.4612    3.7542 O.2       2 UNK        -0.5047 
     32 CA         27.7596   23.2032    3.4548 C.3       2 UNK         0.0288 
     33 CB         28.2387   22.0342    4.3422 C.3       2 UNK        -0.2113 
     34 N          28.6868   23.4255    2.3407 N.am      2 UNK        -0.4145 
     35 C          28.9527   22.6035    1.3139 C.2       1 UNK         0.5006 
     36 O          28.4892   21.4688    1.1794 O.2       1 UNK        -0.5103 
     37 C          27.1674   30.3985    1.2374 C.2       5 UNK         0.5055 
     38 O          27.0387   31.0489    2.2764 O.2       5 UNK        -0.5220 
     39 N          26.9996   30.9178    0.0147 N.am      6 UNK        -0.4450 
     40 CA         26.8043   32.3425   -0.2688 C.3       6 UNK         0.0367 
     41 CB         26.2055   32.4993   -1.6759 C.3       6 UNK        -0.1929 
     42 C          28.1087   33.1527   -0.1428 C.2       6 UNK         0.5070 
     43 O          28.0518   34.3567    0.1102 O.2       6 UNK        -0.5237 
     44 N          29.2554   32.4845   -0.3287 N.am      7 UNK        -0.4739 
     45 CA         30.5956   33.0438   -0.1515 C.3       7 UNK         0.0276 
     46 CB         31.6070   32.1304   -0.8660 C.3       7 UNK        -0.1927 
     47 C          30.9625   33.1826    1.3361 C.2       7 UNK         0.5013 
     48 O          30.4114   32.4723    2.1797 O.2       7 UNK        -0.5193 
     49 N          31.9363   34.0578    1.6206 N.am      8 UNK        -0.4253 
     50 CA         32.4762   34.3071    2.9635 C.3       8 UNK         0.0242 
     51 CB         33.2944   35.6091    2.9390 C.3       8 UNK        -0.2000 
     52 C          33.3235   33.1511    3.5327 C.2       8 UNK         0.4948 
     53 O          33.6033   33.1474    4.7332 O.2       8 UNK        -0.5275 
     54 N          33.7234   32.1950    2.6822 N.am      9 UNK        -0.4246 
     55 CA         34.4807   30.9914    3.0317 C.3       9 UNK         0.0261 
     56 CB         35.0929   30.4016    1.7471 C.3       9 UNK        -0.1959 
     57 C          33.6126   29.9677    3.7898 C.2       9 UNK         0.5033 
     58 O          33.3016   28.9010    3.2565 O.2       9 UNK        -0.5390 
     59 N          33.2277   30.3149    5.0235 N.am      10 UNK        -0.4215 
     60 CA         32.3959   29.5246    5.9349 C.3       10 UNK         0.0240 
     61 CB         31.8426   30.4574    7.0285 C.3       10 UNK        -0.1982 
     62 C          33.1421   28.3054    6.5157 C.2       10 UNK         0.4970 
     63 O          33.3767   28.2436    7.7238 O.2       10 UNK        -0.4916 
     64 N          33.5100   27.3665    5.6362 N.am      11 UNK        -0.4279 
     65 CA         34.2378   26.1215    5.9339 C.3       11 UNK         0.1003 
     66 C          35.7287   26.3190    6.3509 C.2       11 UNK         0.5709 
     67 N          36.3266   27.4840    6.1288 N.am      11 UNK        -0.7358 
     68 O          36.3690   25.4003    6.8566 O.2       11 UNK        -0.4999 
     69 C69        33.4374   25.1806    6.8874 C.3       12 UNK        -0.0954 
     70 S70        33.5948   23.4178    6.4390 S.3       12 UNK        -0.2268 
     71 C71        32.0718   23.1380    5.4793 C.3       12 UNK         0.0203 
     72 H72        27.5075   25.2332   -2.9757 H         1 UNK         0.0888 
     73 H73        28.0180   23.5783   -3.3193 H         1 UNK         0.0888 
     74 H74        26.4402   23.8814   -2.5875 H         1 UNK         0.0888 
     75 H75        29.5396   22.8535   -1.8293 H         1 UNK         0.3017 
     76 H76        30.1597   24.1847    0.5486 H         1 UNK         0.0873 
     77 H77        30.9710   21.4558   -0.5529 H         1 UNK         0.0745 
     78 H78        31.5279   21.9638    1.0127 H         1 UNK         0.0745 
     79 H79        34.3009   24.4761    0.3666 H         1 UNK         0.0705 
     80 H80        34.1465   22.8332    0.9357 H         1 UNK         0.0705 
     81 H81        33.3445   22.5692    3.1429 H         1 UNK         0.1334 
     82 H82        30.7594   25.4719    4.9474 H         1 UNK         0.1417 
     83 H83        32.1216   26.0291    0.9190 H         1 UNK         0.1562 
     84 H84        30.8700   27.7799    2.0008 H         1 UNK         0.0748 
     85 H85        30.7025   27.7538    3.7406 H         1 UNK         0.0748 
     86 H86        28.8517   29.1856    3.0142 H         1 UNK         0.0940 
     87 H87        27.2938   28.5355    3.4437 H         1 UNK         0.0940 
     88 H88        28.3301   28.7420    0.5730 H         1 UNK         0.0703 
     89 H89        25.9070   27.5896    1.6479 H         1 UNK         0.3081 
     90 H90        23.8956   27.4703    0.0031 H         1 UNK         0.0719 
     91 H91        24.0922   27.7076   -2.4717 H         1 UNK         0.0809 
     92 H92        25.1152   26.2788   -2.5507 H         1 UNK         0.0809 
     93 H93        23.4280   26.1354   -2.0602 H         1 UNK         0.0809 
     94 H94        25.9658   25.3647    0.0275 H         1 UNK         0.2990 
     95 H95        23.8557   23.2853    2.0612 H         1 UNK         0.0690 
     96 H96        25.2420   22.7003   -0.6098 H         1 UNK         0.0788 
     97 H97        23.5402   22.4228   -0.2590 H         1 UNK         0.0788 
     98 H98        24.7710   21.5052    0.5957 H         1 UNK         0.0788 
     99 H99        26.6294   24.1003    1.3026 H         1 UNK         0.2993 
    100 H100       27.8026   24.1091    4.0614 H         1 UNK         0.0949 
    101 H101       28.1474   21.0748    3.8323 H         1 UNK         0.0767 
    102 H102       29.2809   22.1609    4.6345 H         1 UNK         0.0767 
    103 H103       27.6520   21.9716    5.2595 H         1 UNK         0.0767 
    104 H104       29.1018   24.3493    2.3211 H         1 UNK         0.3013 
    105 H105       27.0239   30.2793   -0.7755 H         1 UNK         0.3121 
    106 H106       26.0921   32.7475    0.4535 H         1 UNK         0.0774 
    107 H107       26.0235   33.5499   -1.9069 H         1 UNK         0.0815 
    108 H108       26.8716   32.1068   -2.4452 H         1 UNK         0.0815 
    109 H109       25.2509   31.9797   -1.7610 H         1 UNK         0.0815 
    110 H110       29.2000   31.4925   -0.5030 H         1 UNK         0.2987 
    111 H111       30.6226   34.0339   -0.6128 H         1 UNK         0.0949 
    112 H112       31.3650   32.0222   -1.9236 H         1 UNK         0.0806 
    113 H113       32.6170   32.5387   -0.8107 H         1 UNK         0.0806 
    114 H114       31.6338   31.1328   -0.4249 H         1 UNK         0.0806 
    115 H115       32.3439   34.5938    0.8671 H         1 UNK         0.3010 
    116 H116       31.6333   34.4472    3.6439 H         1 UNK         0.0829 
    117 H117       32.6857   36.4557    2.6205 H         1 UNK         0.0813 
    118 H118       33.6803   35.8475    3.9313 H         1 UNK         0.0813 
    119 H119       34.1501   35.5366    2.2664 H         1 UNK         0.0813 
    120 H120       33.4276   32.2725    1.7212 H         1 UNK         0.3038 
    121 H121       35.3027   31.2772    3.6917 H         1 UNK         0.0769 
    122 H122       35.6805   29.5097    1.9694 H         1 UNK         0.0811 
    123 H123       35.7597   31.1138    1.2608 H         1 UNK         0.0811 
    124 H124       34.3252   30.1137    1.0275 H         1 UNK         0.0811 
    125 H125       33.4890   31.2457    5.3362 H         1 UNK         0.3204 
    126 H126       31.5427   29.1429    5.3729 H         1 UNK         0.0748 
    127 H127       31.1892   29.9145    7.7130 H         1 UNK         0.0771 
    128 H128       32.6418   30.9029    7.6225 H         1 UNK         0.0771 
    129 H129       31.2548   31.2681    6.5971 H         1 UNK         0.0771 
    130 H130       33.3411   27.5587    4.6521 H         1 UNK         0.2980 
    131 H131       34.3015   25.6332    4.9612 H         1 UNK         0.0545 
    132 H132       37.2923   27.6003    6.3925 H         1 UNK         0.3459 
    133 H133       35.8197   28.2464    5.7110 H         1 UNK         0.3459 
    134 H134       33.7527   25.3120    7.9239 H         1 UNK         0.0616 
    135 H135       32.3762   25.4322    6.8794 H         1 UNK         0.0616 
    136 H136       31.9912   22.0751    5.2475 H         1 UNK         0.0634 
    137 H137       31.2039   23.3830    6.0936 H         1 UNK         0.0634 
@<TRIPOS>BOND
     1    1    2 1    
     2    1   72 1    
     3    1   73 1    
     4    1   74 1    
     5    2    3 2    
     6    2    4 am   BACKBONE|DICT|INTERRES
     7    4    5 1    
     8    4   75 1    
     9    5    6 1    
    10    5   35 1    
    11    5   76 1    
    12    6    7 1    
    13    6   77 1    
    14    6   78 1    
    15    7    8 1    
    16    8    9 1    
    17    8   79 1    
    18    8   80 1    
    19    9   10 ar   
    20    9   14 ar   
    21   10   11 ar   
    22   10   81 1    
    23   11   12 ar   
    24   11   71 1    
    25   12   13 ar   
    26   12   82 1    
    27   13   14 ar   
    28   13   15 1    
    29   14   83 1    
    30   15   16 1    
    31   15   84 1    
    32   15   85 1    
    33   16   17 1    
    34   17   18 1    
    35   17   86 1    
    36   17   87 1    
    37   18   19 1    
    38   18   37 1    
    39   18   88 1    
    40   19   20 am   BACKBONE|DICT|INTERRES
    41   19   89 1    
    42   20   21 2    
    43   20   22 1    
    44   22   23 1    
    45   22   24 1    
    46   22   90 1    
    47   23   91 1    
    48   23   92 1    
    49   23   93 1    
    50   24   25 am   BACKBONE|DICT|INTERRES
    51   24   94 1    
    52   25   26 2    
    53   25   27 1    
    54   27   28 1    
    55   27   29 1    
    56   27   95 1    
    57   28   96 1    
    58   28   97 1    
    59   28   98 1    
    60   29   30 am   BACKBONE|DICT|INTERRES
    61   29   99 1    
    62   30   31 2    
    63   30   32 1    
    64   32   33 1    
    65   32   34 1    
    66   32  100 1    
    67   33  101 1    
    68   33  102 1    
    69   33  103 1    
    70   34   35 am   BACKBONE|DICT|INTERRES
    71   34  104 1    
    72   35   36 2    
    73   37   38 2    
    74   37   39 am   BACKBONE|DICT|INTERRES
    75   39   40 1    
    76   39  105 1    
    77   40   41 1    
    78   40   42 1    
    79   40  106 1    
    80   41  107 1    
    81   41  108 1    
    82   41  109 1    
    83   42   43 2    
    84   42   44 am   BACKBONE|DICT|INTERRES
    85   44   45 1    
    86   44  110 1    
    87   45   46 1    
    88   45   47 1    
    89   45  111 1    
    90   46  112 1    
    91   46  113 1    
    92   46  114 1    
    93   47   48 2    
    94   47   49 am   BACKBONE|DICT|INTERRES
    95   49   50 1    
    96   49  115 1    
    97   50   51 1    
    98   50   52 1    
    99   50  116 1    
   100   51  117 1    
   101   51  118 1    
   102   51  119 1    
   103   52   53 2    
   104   52   54 am   BACKBONE|DICT|INTERRES
   105   54   55 1    
   106   54  120 1    
   107   55   56 1    
   108   55   57 1    
   109   55  121 1    
   110   56  122 1    
   111   56  123 1    
   112   56  124 1    
   113   57   58 2    
   114   57   59 am   BACKBONE|DICT|INTERRES
   115   59   60 1    
   116   59  125 1    
   117   60   61 1    
   118   60   62 1    
   119   60  126 1    
   120   61  127 1    
   121   61  128 1    
   122   61  129 1    
   123   62   63 2    
   124   62   64 am   BACKBONE|DICT|INTERRES
   125   64   65 1    
   126   64  130 1    
   127   65   66 1    
   128   65   69 1    
   129   65  131 1    
   130   66   67 am   BACKBONE|DICT|INTERRES
   131   66   68 2    
   132   67  132 1    
   133   67  133 1    
   134   69   70 1    
   135   69  134 1    
   136   69  135 1    
   137   70   71 1    
   138   71  136 1    
   139   71  137 1    
@<TRIPOS>SUBSTRUCTURE
     1 UNK         1 GROUP             0       ****    0 ROOT    
