@<TRIPOS>MOLECULE
3R136
137   139    1
SMALL
USER_CHARGES


@<TRIPOS>ATOM
      1 CA         30.4126   21.2343    3.3443 C.3       0 UNK        -0.1979 
      2 C          30.1983   20.3009    2.1617 C.2       0 UNK         0.4864 
      3 O          30.9096   19.3046    2.0270 O.2       0 UNK        -0.5359 
      4 N          29.2222   20.6201    1.3085 N.am      1 UNK        -0.4318 
      5 CA         28.8673   19.8878    0.0891 C.3       1 UNK         0.0824 
      6 C6         29.5667   20.4599   -1.1800 C.3       12 UNK        -0.0944 
      7 S7         29.5841   22.2911   -1.2765 S.3       12 UNK        -0.2672 
      8 C8         31.3304   22.6069   -0.8745 C.3       12 UNK         0.0333 
      9 C9         31.5645   24.0090   -0.3327 C.ar      12 UNK        -0.0807 
     10 C10        31.8091   24.1996    1.0316 C.ar      12 UNK        -0.0894 
     11 C11        32.1295   25.4669    1.5265 C.ar      12 UNK        -0.0804 
     12 C12        32.2089   26.5440    0.6405 C.ar      12 UNK        -0.0824 
     13 C13        31.9061   26.3819   -0.7122 C.ar      12 UNK        -0.0762 
     14 C14        31.5923   25.1081   -1.1975 C.ar      12 UNK        -0.0782 
     15 C15        31.9332   27.5818   -1.6458 C.3       12 UNK         0.0230 
     16 S16        30.3226   28.4327   -1.6945 S.3       12 UNK        -0.2608 
     17 C17        30.3313   29.4137   -0.1522 C.3       12 UNK        -0.0989 
     18 CA         29.0729   29.1585    0.7157 C.3       5 UNK         0.0716 
     19 N          28.9926   27.7795    1.2084 N.am      5 UNK        -0.4135 
     20 C          27.8448   27.1786    1.5402 C.2       4 UNK         0.5031 
     21 O          26.7351   27.7145    1.4486 O.2       4 UNK        -0.5229 
     22 CA         27.9284   25.7308    2.0377 C.3       4 UNK         0.0329 
     23 CB         28.0088   25.6584    3.5721 C.3       4 UNK        -0.2001 
     24 N          26.7190   25.0573    1.5817 N.am      4 UNK        -0.4303 
     25 C          26.5912   23.7539    1.3307 C.2       3 UNK         0.5044 
     26 O          27.4807   22.9229    1.5431 O.2       3 UNK        -0.5152 
     27 CA         25.2418   23.3298    0.7156 C.3       3 UNK         0.0319 
     28 CB         25.0802   23.9091   -0.7011 C.3       3 UNK        -0.2001 
     29 N          25.1565   21.8769    0.6247 N.am      3 UNK        -0.4354 
     30 C          24.8376   21.0518    1.6266 C.2       2 UNK         0.4964 
     31 O          24.3009   21.4127    2.6746 O.2       2 UNK        -0.5047 
     32 CA         25.2620   19.5818    1.4538 C.3       2 UNK         0.0288 
     33 CB         24.3552   18.8271    0.4604 C.3       2 UNK        -0.2113 
     34 N          26.6928   19.4613    1.1232 N.am      2 UNK        -0.4145 
     35 C          27.3317   19.8267   -0.0025 C.2       1 UNK         0.5006 
     36 O          26.7523   20.1749   -1.0338 O.2       1 UNK        -0.5103 
     37 C          28.9727   30.1717    1.8759 C.2       5 UNK         0.5055 
     38 O          29.2556   29.8399    3.0321 O.2       5 UNK        -0.5220 
     39 N          28.5755   31.4013    1.5198 N.am      6 UNK        -0.4450 
     40 CA         28.4143   32.5539    2.4096 C.3       6 UNK         0.0367 
     41 CB         27.5286   33.5968    1.6983 C.3       6 UNK        -0.1929 
     42 C          29.7613   33.1450    2.8765 C.2       6 UNK         0.5070 
     43 O          30.7963   32.4844    2.7777 O.2       6 UNK        -0.5237 
     44 N          29.7284   34.3872    3.3811 N.am      7 UNK        -0.4739 
     45 CA         30.8091   35.1251    4.0583 C.3       7 UNK         0.0276 
     46 CB         30.3156   36.5503    4.3582 C.3       7 UNK        -0.1927 
     47 C          32.1867   35.1781    3.3647 C.2       7 UNK         0.5013 
     48 O          33.1789   35.4399    4.0450 O.2       7 UNK        -0.5193 
     49 N          32.2420   34.9111    2.0522 N.am      8 UNK        -0.4253 
     50 CA         33.4809   34.7030    1.2947 C.3       8 UNK         0.0242 
     51 CB         33.1495   34.5942   -0.2025 C.3       8 UNK        -0.2000 
     52 C          34.2746   33.4657    1.7636 C.2       8 UNK         0.4948 
     53 O          35.5056   33.4983    1.7409 O.2       8 UNK        -0.5275 
     54 N          33.5586   32.4176    2.1929 N.am      9 UNK        -0.4246 
     55 CA         34.1061   31.2218    2.8383 C.3       9 UNK         0.0261 
     56 CB         33.5194   29.9705    2.1664 C.3       9 UNK        -0.1959 
     57 C          33.7779   31.2089    4.3402 C.2       9 UNK         0.5033 
     58 O          34.6006   30.7478    5.1313 O.2       9 UNK        -0.5390 
     59 N          32.5816   31.7038    4.6957 N.am      10 UNK        -0.4215 
     60 CA         31.9933   31.8088    6.0364 C.3       10 UNK         0.0240 
     61 CB         32.8451   32.7150    6.9504 C.3       10 UNK        -0.1982 
     62 C          31.6492   30.4550    6.6886 C.2       10 UNK         0.4970 
     63 O          31.4111   30.4137    7.8970 O.2       10 UNK        -0.4916 
     64 N          31.6048   29.3808    5.8915 N.am      11 UNK        -0.4279 
     65 CA         31.2084   28.0349    6.3242 C.3       11 UNK         0.1003 
     66 C          29.6700   27.8422    6.4464 C.2       11 UNK         0.5709 
     67 N          28.8476   28.5747    5.7033 N.am      11 UNK        -0.7358 
     68 O          29.2168   27.0261    7.2452 O.2       11 UNK        -0.4999 
     69 C69        31.8757   26.9357    5.4576 C.3       12 UNK        -0.0954 
     70 S70        31.5285   27.1096    3.6785 S.3       12 UNK        -0.2268 
     71 C71        32.4123   25.6663    3.0103 C.3       12 UNK         0.0203 
     72 H72        30.1353   20.7343    4.2718 H         1 UNK         0.0888 
     73 H73        31.4612   21.5221    3.4127 H         1 UNK         0.0888 
     74 H74        29.8167   22.1434    3.2554 H         1 UNK         0.0888 
     75 H75        28.6677   21.4633    1.4615 H         1 UNK         0.3017 
     76 H76        29.1804   18.8464    0.1915 H         1 UNK         0.0873 
     77 H77        30.5943   20.0951   -1.2068 H         1 UNK         0.0745 
     78 H78        29.1133   20.0666   -2.0917 H         1 UNK         0.0745 
     79 H79        31.9356   22.4512   -1.7688 H         1 UNK         0.0705 
     80 H80        31.6747   21.8730   -0.1442 H         1 UNK         0.0705 
     81 H81        31.7761   23.3544    1.7045 H         1 UNK         0.1334 
     82 H82        32.4937   27.5158    1.0145 H         1 UNK         0.1417 
     83 H83        31.3831   24.9672   -2.2495 H         1 UNK         0.1562 
     84 H84        32.1862   27.2569   -2.6562 H         1 UNK         0.0748 
     85 H85        32.7155   28.2830   -1.3505 H         1 UNK         0.0748 
     86 H86        30.3886   30.4629   -0.4487 H         1 UNK         0.0940 
     87 H87        31.2380   29.2255    0.4174 H         1 UNK         0.0940 
     88 H88        28.2039   29.3302    0.0757 H         1 UNK         0.0703 
     89 H89        29.8679   27.2953    1.3456 H         1 UNK         0.3081 
     90 H90        28.8063   25.2528    1.5958 H         1 UNK         0.0719 
     91 H91        28.8741   26.1998    3.9473 H         1 UNK         0.0809 
     92 H92        27.1271   26.0955    4.0421 H         1 UNK         0.0809 
     93 H93        28.0979   24.6281    3.9167 H         1 UNK         0.0809 
     94 H94        25.9642   25.6934    1.3530 H         1 UNK         0.2990 
     95 H95        24.4353   23.7026    1.3506 H         1 UNK         0.0690 
     96 H96        24.1426   23.5874   -1.1552 H         1 UNK         0.0788 
     97 H97        25.8938   23.5959   -1.3575 H         1 UNK         0.0788 
     98 H98        25.0718   24.9996   -0.6886 H         1 UNK         0.0788 
     99 H99        25.6423   21.4546   -0.1619 H         1 UNK         0.2993 
    100 H100       25.1425   19.1045    2.4281 H         1 UNK         0.0949 
    101 H101       23.3206   18.8305    0.8056 H         1 UNK         0.0767 
    102 H102       24.3621   19.2758   -0.5331 H         1 UNK         0.0767 
    103 H103       24.6601   17.7855    0.3598 H         1 UNK         0.0767 
    104 H104       27.2813   19.2201    1.9091 H         1 UNK         0.3013 
    105 H105       28.3951   31.5767    0.5422 H         1 UNK         0.3121 
    106 H106       27.8910   32.2129    3.3053 H         1 UNK         0.0774 
    107 H107       28.0402   34.0501    0.8480 H         1 UNK         0.0815 
    108 H108       26.6070   33.1459    1.3291 H         1 UNK         0.0815 
    109 H109       27.2294   34.4008    2.3713 H         1 UNK         0.0815 
    110 H110       28.8312   34.8511    3.3848 H         1 UNK         0.2987 
    111 H111       30.9743   34.6236    5.0135 H         1 UNK         0.0949 
    112 H112       29.4232   36.5403    4.9844 H         1 UNK         0.0806 
    113 H113       31.0732   37.1255    4.8928 H         1 UNK         0.0806 
    114 H114       30.0796   37.0947    3.4430 H         1 UNK         0.0806 
    115 H115       31.3744   34.7061    1.5786 H         1 UNK         0.3010 
    116 H116       34.1160   35.5789    1.4444 H         1 UNK         0.0829 
    117 H117       32.4967   33.7458   -0.4122 H         1 UNK         0.0813 
    118 H118       34.0570   34.4608   -0.7933 H         1 UNK         0.0813 
    119 H119       32.6575   35.4962   -0.5671 H         1 UNK         0.0813 
    120 H120       32.5447   32.5014    2.1908 H         1 UNK         0.3038 
    121 H121       35.1924   31.1936    2.7304 H         1 UNK         0.0769 
    122 H122       33.7376   29.9537    1.0986 H         1 UNK         0.0811 
    123 H123       32.4373   29.9198    2.2927 H         1 UNK         0.0811 
    124 H124       33.9409   29.0623    2.5998 H         1 UNK         0.0811 
    125 H125       31.9550   31.9968    3.9447 H         1 UNK         0.3204 
    126 H126       31.0334   32.3061    5.8920 H         1 UNK         0.0748 
    127 H127       33.7948   32.2477    7.2122 H         1 UNK         0.0771 
    128 H128       33.0624   33.6698    6.4709 H         1 UNK         0.0771 
    129 H129       32.3238   32.9338    7.8830 H         1 UNK         0.0771 
    130 H130       31.7758   29.4923    4.9037 H         1 UNK         0.2980 
    131 H131       31.5984   27.8945    7.3344 H         1 UNK         0.0545 
    132 H132       29.2003   29.1682    4.9604 H         1 UNK         0.3459 
    133 H133       27.8548   28.4477    5.8071 H         1 UNK         0.3459 
    134 H134       31.5637   25.9428    5.7870 H         1 UNK         0.0616 
    135 H135       32.9576   26.9720    5.5940 H         1 UNK         0.0616 
    136 H136       33.4847   25.7991    3.1583 H         1 UNK         0.0634 
    137 H137       32.1186   24.7814    3.5772 H         1 UNK         0.0634 
@<TRIPOS>BOND
     1    1    2 1    
     2    1   72 1    
     3    1   73 1    
     4    1   74 1    
     5    2    3 2    
     6    2    4 am   BACKBONE|DICT|INTERRES
     7    4    5 1    
     8    4   75 1    
     9    5    6 1    
    10    5   35 1    
    11    5   76 1    
    12    6    7 1    
    13    6   77 1    
    14    6   78 1    
    15    7    8 1    
    16    8    9 1    
    17    8   79 1    
    18    8   80 1    
    19    9   10 ar   
    20    9   14 ar   
    21   10   11 ar   
    22   10   81 1    
    23   11   12 ar   
    24   11   71 1    
    25   12   13 ar   
    26   12   82 1    
    27   13   14 ar   
    28   13   15 1    
    29   14   83 1    
    30   15   16 1    
    31   15   84 1    
    32   15   85 1    
    33   16   17 1    
    34   17   18 1    
    35   17   86 1    
    36   17   87 1    
    37   18   19 1    
    38   18   37 1    
    39   18   88 1    
    40   19   20 am   BACKBONE|DICT|INTERRES
    41   19   89 1    
    42   20   21 2    
    43   20   22 1    
    44   22   23 1    
    45   22   24 1    
    46   22   90 1    
    47   23   91 1    
    48   23   92 1    
    49   23   93 1    
    50   24   25 am   BACKBONE|DICT|INTERRES
    51   24   94 1    
    52   25   26 2    
    53   25   27 1    
    54   27   28 1    
    55   27   29 1    
    56   27   95 1    
    57   28   96 1    
    58   28   97 1    
    59   28   98 1    
    60   29   30 am   BACKBONE|DICT|INTERRES
    61   29   99 1    
    62   30   31 2    
    63   30   32 1    
    64   32   33 1    
    65   32   34 1    
    66   32  100 1    
    67   33  101 1    
    68   33  102 1    
    69   33  103 1    
    70   34   35 am   BACKBONE|DICT|INTERRES
    71   34  104 1    
    72   35   36 2    
    73   37   38 2    
    74   37   39 am   BACKBONE|DICT|INTERRES
    75   39   40 1    
    76   39  105 1    
    77   40   41 1    
    78   40   42 1    
    79   40  106 1    
    80   41  107 1    
    81   41  108 1    
    82   41  109 1    
    83   42   43 2    
    84   42   44 am   BACKBONE|DICT|INTERRES
    85   44   45 1    
    86   44  110 1    
    87   45   46 1    
    88   45   47 1    
    89   45  111 1    
    90   46  112 1    
    91   46  113 1    
    92   46  114 1    
    93   47   48 2    
    94   47   49 am   BACKBONE|DICT|INTERRES
    95   49   50 1    
    96   49  115 1    
    97   50   51 1    
    98   50   52 1    
    99   50  116 1    
   100   51  117 1    
   101   51  118 1    
   102   51  119 1    
   103   52   53 2    
   104   52   54 am   BACKBONE|DICT|INTERRES
   105   54   55 1    
   106   54  120 1    
   107   55   56 1    
   108   55   57 1    
   109   55  121 1    
   110   56  122 1    
   111   56  123 1    
   112   56  124 1    
   113   57   58 2    
   114   57   59 am   BACKBONE|DICT|INTERRES
   115   59   60 1    
   116   59  125 1    
   117   60   61 1    
   118   60   62 1    
   119   60  126 1    
   120   61  127 1    
   121   61  128 1    
   122   61  129 1    
   123   62   63 2    
   124   62   64 am   BACKBONE|DICT|INTERRES
   125   64   65 1    
   126   64  130 1    
   127   65   66 1    
   128   65   69 1    
   129   65  131 1    
   130   66   67 am   BACKBONE|DICT|INTERRES
   131   66   68 2    
   132   67  132 1    
   133   67  133 1    
   134   69   70 1    
   135   69  134 1    
   136   69  135 1    
   137   70   71 1    
   138   71  136 1    
   139   71  137 1    
@<TRIPOS>SUBSTRUCTURE
     1 UNK         1 GROUP             0       ****    0 ROOT    
