@<TRIPOS>MOLECULE
3R136
137   139    1
SMALL
USER_CHARGES


@<TRIPOS>ATOM
      1 CA         30.4829   26.4349    5.7010 C.3       0 UNK        -0.1979 
      2 C          29.1855   25.6596    5.5199 C.2       0 UNK         0.4864 
      3 O          28.2705   25.8014    6.3311 O.2       0 UNK        -0.5359 
      4 N          29.1054   24.8347    4.4672 N.am      1 UNK        -0.4318 
      5 CA         27.9467   23.9955    4.1340 C.3       1 UNK         0.0824 
      6 C6         28.3014   22.9137    3.0792 C.3       12 UNK        -0.0944 
      7 S7         29.0873   23.5996    1.5758 S.3       12 UNK        -0.2672 
      8 C8         30.7611   22.8854    1.6734 C.3       12 UNK         0.0333 
      9 C9         31.7845   23.7856    0.9979 C.ar      12 UNK        -0.0807 
     10 C10        32.8048   24.3799    1.7470 C.ar      12 UNK        -0.0894 
     11 C11        33.7330   25.2270    1.1345 C.ar      12 UNK        -0.0804 
     12 C12        33.6346   25.4828   -0.2363 C.ar      12 UNK        -0.0824 
     13 C13        32.6263   24.8839   -0.9980 C.ar      12 UNK        -0.0762 
     14 C14        31.7130   24.0260   -0.3773 C.ar      12 UNK        -0.0782 
     15 C15        32.5387   25.1520   -2.4935 C.3       12 UNK         0.0230 
     16 S16        31.6701   26.7100   -2.8597 S.3       12 UNK        -0.2608 
     17 C17        29.9282   26.2359   -2.5942 C.3       12 UNK        -0.0989 
     18 CA         29.0748   27.3908   -2.0101 C.3       5 UNK         0.0716 
     19 N          27.6491   27.1636   -2.1955 N.am      5 UNK        -0.4135 
     20 C          26.9422   27.2183   -3.3267 C.2       4 UNK         0.5031 
     21 O          27.4246   27.5207   -4.4196 O.2       4 UNK        -0.5229 
     22 CA         25.4371   26.8865   -3.2072 C.3       4 UNK         0.0329 
     23 CB         24.8544   26.2938   -4.5080 C.3       4 UNK        -0.2001 
     24 N          25.1132   26.0369   -2.0486 N.am      4 UNK        -0.4303 
     25 C          25.5541   24.7935   -1.8012 C.2       3 UNK         0.5044 
     26 O          26.2695   24.1496   -2.5705 O.2       3 UNK        -0.5152 
     27 CA         25.1691   24.2045   -0.4322 C.3       3 UNK         0.0319 
     28 CB         25.6330   22.7459   -0.2595 C.3       3 UNK        -0.2001 
     29 N          25.7328   25.0040    0.6572 N.am      3 UNK        -0.4354 
     30 C          25.1918   26.1161    1.1759 C.2       2 UNK         0.4964 
     31 O          24.1586   26.6237    0.7359 O.2       2 UNK        -0.5047 
     32 CA         25.9337   26.7924    2.3498 C.3       2 UNK         0.0288 
     33 CB         24.9708   27.4163    3.3827 C.3       2 UNK        -0.2113 
     34 N          26.9307   25.9275    2.9976 N.am      2 UNK        -0.4145 
     35 C          26.7052   24.8021    3.6963 C.2       1 UNK         0.5006 
     36 O          25.5845   24.3678    3.9674 O.2       1 UNK        -0.5103 
     37 C          29.2678   27.5791   -0.4939 C.2       5 UNK         0.5055 
     38 O          28.3957   27.1691    0.2800 O.2       5 UNK        -0.5220 
     39 N          30.3791   28.2138   -0.0999 N.am      6 UNK        -0.4450 
     40 CA         30.6724   28.6932    1.2557 C.3       6 UNK         0.0367 
     41 CB         30.7394   27.5293    2.2688 C.3       6 UNK        -0.1929 
     42 C          29.7009   29.8241    1.6489 C.2       6 UNK         0.5070 
     43 O          29.4932   30.7318    0.8411 O.2       6 UNK        -0.5237 
     44 N          29.1523   29.7815    2.8726 N.am      7 UNK        -0.4739 
     45 CA         28.1993   30.7170    3.4978 C.3       7 UNK         0.0276 
     46 CB         26.8963   30.8436    2.6837 C.3       7 UNK        -0.1927 
     47 C          28.7847   32.1041    3.8171 C.2       7 UNK         0.5013 
     48 O          28.5533   32.6170    4.9121 O.2       7 UNK        -0.5193 
     49 N          29.5563   32.6706    2.8813 N.am      8 UNK        -0.4253 
     50 CA         30.3298   33.9048    3.0452 C.3       8 UNK         0.0242 
     51 CB         30.8262   34.3719    1.6673 C.3       8 UNK        -0.2000 
     52 C          31.5121   33.7507    4.0211 C.2       8 UNK         0.4948 
     53 O          31.9765   34.7522    4.5676 O.2       8 UNK        -0.5275 
     54 N          31.9663   32.5101    4.2300 N.am      9 UNK        -0.4246 
     55 CA         32.9641   32.1139    5.2123 C.3       9 UNK         0.0261 
     56 CB         34.3600   32.1074    4.5655 C.3       9 UNK        -0.1959 
     57 C          32.5895   30.7164    5.7114 C.2       9 UNK         0.5033 
     58 O          32.0404   29.9203    4.9429 O.2       9 UNK        -0.5390 
     59 N          32.9325   30.4216    6.9699 N.am      10 UNK        -0.4215 
     60 CA         32.7564   29.1115    7.6007 C.3       10 UNK         0.0240 
     61 CB         32.5438   29.3062    9.1140 C.3       10 UNK        -0.1982 
     62 C          33.9508   28.1939    7.2780 C.2       10 UNK         0.4970 
     63 O          34.6470   27.7405    8.1878 O.2       10 UNK        -0.4916 
     64 N          34.1891   27.9725    5.9804 N.am      11 UNK        -0.4279 
     65 CA         35.3188   27.1956    5.4470 C.3       11 UNK         0.1003 
     66 C          35.2171   25.6511    5.6259 C.2       11 UNK         0.5709 
     67 N          34.0963   25.1035    6.0809 N.am      11 UNK        -0.7358 
     68 O          36.1812   24.9384    5.3576 O.2       11 UNK        -0.4999 
     69 C69        35.6480   27.6108    3.9879 C.3       12 UNK        -0.0954 
     70 S70        34.2704   27.3469    2.8203 S.3       12 UNK        -0.2268 
     71 C71        34.8453   25.8530    1.9587 C.3       12 UNK         0.0203 
     72 H72        30.8734   26.2745    6.7054 H         1 UNK         0.0888 
     73 H73        31.2469   26.1253    4.9878 H         1 UNK         0.0888 
     74 H74        30.3039   27.5020    5.5718 H         1 UNK         0.0888 
     75 H75        29.8856   24.7547    3.8309 H         1 UNK         0.3017 
     76 H76        27.6594   23.4732    5.0495 H         1 UNK         0.0873 
     77 H77        28.9610   22.1718    3.5312 H         1 UNK         0.0745 
     78 H78        27.4122   22.3544    2.7802 H         1 UNK         0.0745 
     79 H79        31.0372   22.7255    2.7166 H         1 UNK         0.0705 
     80 H80        30.7625   21.9036    1.1982 H         1 UNK         0.0705 
     81 H81        32.8764   24.1937    2.8101 H         1 UNK         0.1334 
     82 H82        34.3450   26.1448   -0.7125 H         1 UNK         0.1417 
     83 H83        30.9326   23.5529   -0.9574 H         1 UNK         0.1562 
     84 H84        32.0439   24.3265   -3.0077 H         1 UNK         0.0748 
     85 H85        33.5452   25.2069   -2.9111 H         1 UNK         0.0748 
     86 H86        29.8512   25.3487   -1.9659 H         1 UNK         0.0940 
     87 H87        29.5403   25.9351   -3.5685 H         1 UNK         0.0940 
     88 H88        29.3254   28.3293   -2.5093 H         1 UNK         0.0703 
     89 H89        27.1806   26.9429   -1.3248 H         1 UNK         0.3081 
     90 H90        24.9369   27.8394   -3.0290 H         1 UNK         0.0719 
     91 H91        25.3587   25.3705   -4.7945 H         1 UNK         0.0809 
     92 H92        23.7911   26.0779   -4.4046 H         1 UNK         0.0809 
     93 H93        24.9618   26.9920   -5.3390 H         1 UNK         0.0809 
     94 H94        24.5555   26.4734   -1.3209 H         1 UNK         0.2990 
     95 H95        24.0791   24.2176   -0.3629 H         1 UNK         0.0690 
     96 H96        25.3166   22.3408    0.7019 H         1 UNK         0.0788 
     97 H97        26.7186   22.6562   -0.3188 H         1 UNK         0.0788 
     98 H98        25.2094   22.1067   -1.0354 H         1 UNK         0.0788 
     99 H99        26.6217   24.6939    1.0248 H         1 UNK         0.2993 
    100 H100       26.4962   27.6123    1.9047 H         1 UNK         0.0949 
    101 H101       25.5177   27.8905    4.1977 H         1 UNK         0.0767 
    102 H102       24.3483   28.1844    2.9221 H         1 UNK         0.0767 
    103 H103       24.2993   26.6740    3.8147 H         1 UNK         0.0767 
    104 H104       27.8920   26.1546    2.7861 H         1 UNK         0.3013 
    105 H105       31.0337   28.5030   -0.8136 H         1 UNK         0.3121 
    106 H106       31.6653   29.1433    1.2108 H         1 UNK         0.0774 
    107 H107       31.1843   27.8605    3.2071 H         1 UNK         0.0815 
    108 H108       29.7609   27.1042    2.4867 H         1 UNK         0.0815 
    109 H109       31.3645   26.7250    1.8868 H         1 UNK         0.0815 
    110 H110       29.4532   29.0277    3.4737 H         1 UNK         0.2987 
    111 H111       27.9373   30.2672    4.4573 H         1 UNK         0.0949 
    112 H112       27.0617   31.3048    1.7098 H         1 UNK         0.0806 
    113 H113       26.4339   29.8726    2.5189 H         1 UNK         0.0806 
    114 H114       26.1683   31.4607    3.2119 H         1 UNK         0.0806 
    115 H115       29.6554   32.1658    2.0027 H         1 UNK         0.3010 
    116 H116       29.6656   34.6702    3.4522 H         1 UNK         0.0829 
    117 H117       29.9941   34.5549    0.9870 H         1 UNK         0.0813 
    118 H118       31.3875   35.3037    1.7493 H         1 UNK         0.0813 
    119 H119       31.4828   33.6343    1.2039 H         1 UNK         0.0813 
    120 H120       31.4996   31.7313    3.7826 H         1 UNK         0.3038 
    121 H121       32.9484   32.8080    6.0556 H         1 UNK         0.0769 
    122 H122       34.4115   31.4111    3.7270 H         1 UNK         0.0811 
    123 H123       35.1246   31.8103    5.2843 H         1 UNK         0.0811 
    124 H124       34.6294   33.0968    4.1956 H         1 UNK         0.0811 
    125 H125       33.4178   31.1191    7.5168 H         1 UNK         0.3204 
    126 H126       31.8593   28.6349    7.2017 H         1 UNK         0.0748 
    127 H127       31.6704   29.9274    9.3140 H         1 UNK         0.0771 
    128 H128       32.3786   28.3496    9.6118 H         1 UNK         0.0771 
    129 H129       33.4058   29.7771    9.5886 H         1 UNK         0.0771 
    130 H130       33.5658   28.3833    5.2951 H         1 UNK         0.2980 
    131 H131       36.1898   27.4791    6.0410 H         1 UNK         0.0545 
    132 H132       34.0509   24.1044    6.2020 H         1 UNK         0.3459 
    133 H133       33.3133   25.6819    6.3308 H         1 UNK         0.3459 
    134 H134       36.5424   27.0971    3.6304 H         1 UNK         0.0616 
    135 H135       35.8964   28.6729    3.9632 H         1 UNK         0.0616 
    136 H136       35.6961   26.1089    1.3254 H         1 UNK         0.0634 
    137 H137       35.2091   25.1242    2.6838 H         1 UNK         0.0634 
@<TRIPOS>BOND
     1    1    2 1    
     2    1   72 1    
     3    1   73 1    
     4    1   74 1    
     5    2    3 2    
     6    2    4 am   BACKBONE|DICT|INTERRES
     7    4    5 1    
     8    4   75 1    
     9    5    6 1    
    10    5   35 1    
    11    5   76 1    
    12    6    7 1    
    13    6   77 1    
    14    6   78 1    
    15    7    8 1    
    16    8    9 1    
    17    8   79 1    
    18    8   80 1    
    19    9   10 ar   
    20    9   14 ar   
    21   10   11 ar   
    22   10   81 1    
    23   11   12 ar   
    24   11   71 1    
    25   12   13 ar   
    26   12   82 1    
    27   13   14 ar   
    28   13   15 1    
    29   14   83 1    
    30   15   16 1    
    31   15   84 1    
    32   15   85 1    
    33   16   17 1    
    34   17   18 1    
    35   17   86 1    
    36   17   87 1    
    37   18   19 1    
    38   18   37 1    
    39   18   88 1    
    40   19   20 am   BACKBONE|DICT|INTERRES
    41   19   89 1    
    42   20   21 2    
    43   20   22 1    
    44   22   23 1    
    45   22   24 1    
    46   22   90 1    
    47   23   91 1    
    48   23   92 1    
    49   23   93 1    
    50   24   25 am   BACKBONE|DICT|INTERRES
    51   24   94 1    
    52   25   26 2    
    53   25   27 1    
    54   27   28 1    
    55   27   29 1    
    56   27   95 1    
    57   28   96 1    
    58   28   97 1    
    59   28   98 1    
    60   29   30 am   BACKBONE|DICT|INTERRES
    61   29   99 1    
    62   30   31 2    
    63   30   32 1    
    64   32   33 1    
    65   32   34 1    
    66   32  100 1    
    67   33  101 1    
    68   33  102 1    
    69   33  103 1    
    70   34   35 am   BACKBONE|DICT|INTERRES
    71   34  104 1    
    72   35   36 2    
    73   37   38 2    
    74   37   39 am   BACKBONE|DICT|INTERRES
    75   39   40 1    
    76   39  105 1    
    77   40   41 1    
    78   40   42 1    
    79   40  106 1    
    80   41  107 1    
    81   41  108 1    
    82   41  109 1    
    83   42   43 2    
    84   42   44 am   BACKBONE|DICT|INTERRES
    85   44   45 1    
    86   44  110 1    
    87   45   46 1    
    88   45   47 1    
    89   45  111 1    
    90   46  112 1    
    91   46  113 1    
    92   46  114 1    
    93   47   48 2    
    94   47   49 am   BACKBONE|DICT|INTERRES
    95   49   50 1    
    96   49  115 1    
    97   50   51 1    
    98   50   52 1    
    99   50  116 1    
   100   51  117 1    
   101   51  118 1    
   102   51  119 1    
   103   52   53 2    
   104   52   54 am   BACKBONE|DICT|INTERRES
   105   54   55 1    
   106   54  120 1    
   107   55   56 1    
   108   55   57 1    
   109   55  121 1    
   110   56  122 1    
   111   56  123 1    
   112   56  124 1    
   113   57   58 2    
   114   57   59 am   BACKBONE|DICT|INTERRES
   115   59   60 1    
   116   59  125 1    
   117   60   61 1    
   118   60   62 1    
   119   60  126 1    
   120   61  127 1    
   121   61  128 1    
   122   61  129 1    
   123   62   63 2    
   124   62   64 am   BACKBONE|DICT|INTERRES
   125   64   65 1    
   126   64  130 1    
   127   65   66 1    
   128   65   69 1    
   129   65  131 1    
   130   66   67 am   BACKBONE|DICT|INTERRES
   131   66   68 2    
   132   67  132 1    
   133   67  133 1    
   134   69   70 1    
   135   69  134 1    
   136   69  135 1    
   137   70   71 1    
   138   71  136 1    
   139   71  137 1    
@<TRIPOS>SUBSTRUCTURE
     1 UNK         1 GROUP             0       ****    0 ROOT    
