@<TRIPOS>MOLECULE
3R136
137   139    1
SMALL
USER_CHARGES


@<TRIPOS>ATOM
      1 CA         29.6925   27.0820    2.2034 C.3       0 UNK        -0.1979 
      2 C          29.1204   25.7201    2.5572 C.2       0 UNK         0.4864 
      3 O          28.1344   25.6479    3.2942 O.2       0 UNK        -0.5359 
      4 N          29.7362   24.6448    2.0432 N.am      1 UNK        -0.4318 
      5 CA         29.3759   23.2441    2.2929 C.3       1 UNK         0.0824 
      6 C6         30.2818   22.2609    1.5138 C.3       12 UNK        -0.0944 
      7 S7         32.0000   22.2764    2.1288 S.3       12 UNK        -0.2672 
      8 C8         32.9518   22.7100    0.6393 C.3       12 UNK         0.0333 
      9 C9         32.9366   24.2073    0.3737 C.ar      12 UNK        -0.0807 
     10 C10        33.8138   25.0481    1.0656 C.ar      12 UNK        -0.0894 
     11 C11        33.8209   26.4267    0.8250 C.ar      12 UNK        -0.0804 
     12 C12        32.9474   26.9550   -0.1307 C.ar      12 UNK        -0.0824 
     13 C13        32.0621   26.1265   -0.8270 C.ar      12 UNK        -0.0762 
     14 C14        32.0672   24.7509   -0.5756 C.ar      12 UNK        -0.0782 
     15 C15        31.1100   26.7148   -1.8593 C.3       12 UNK         0.0230 
     16 S16        29.3773   26.4356   -1.3879 S.3       12 UNK        -0.2608 
     17 C17        28.4865   27.3172   -2.7219 C.3       12 UNK        -0.0989 
     18 CA         27.1284   27.9241   -2.2698 C.3       5 UNK         0.0716 
     19 N          26.2759   26.9303   -1.6305 N.am      5 UNK        -0.4135 
     20 C          25.5230   26.0208   -2.2533 C.2       4 UNK         0.5031 
     21 O          25.3843   25.9780   -3.4772 O.2       4 UNK        -0.5229 
     22 CA         24.8234   24.9601   -1.3818 C.3       4 UNK         0.0329 
     23 CB         25.2631   23.5438   -1.7916 C.3       4 UNK        -0.2001 
     24 N          25.0725   25.1240    0.0535 N.am      4 UNK        -0.4303 
     25 C          24.3947   25.9519    0.8629 C.2       3 UNK         0.5044 
     26 O          23.5134   26.7142    0.4627 O.2       3 UNK        -0.5152 
     27 CA         24.7683   25.9335    2.3622 C.3       3 UNK         0.0319 
     28 CB         23.5905   26.3314    3.2770 C.3       3 UNK        -0.2001 
     29 N          25.3700   24.6663    2.7986 N.am      3 UNK        -0.4354 
     30 C          24.8158   23.4421    2.7439 C.2       2 UNK         0.4964 
     31 O          23.6409   23.2420    2.4320 O.2       2 UNK        -0.5047 
     32 CA         25.7197   22.2299    3.0637 C.3       2 UNK         0.0288 
     33 CB         25.3960   21.0163    2.1650 C.3       2 UNK        -0.2113 
     34 N          27.1623   22.5133    3.0324 N.am      2 UNK        -0.4145 
     35 C          27.8870   22.9688    1.9976 C.2       1 UNK         0.5006 
     36 O          27.4267   23.2134    0.8791 O.2       1 UNK        -0.5103 
     37 C          27.3082   29.1023   -1.2989 C.2       5 UNK         0.5055 
     38 O          27.1459   28.9295   -0.0865 O.2       5 UNK        -0.5220 
     39 N          27.6635   30.2707   -1.8474 N.am      6 UNK        -0.4450 
     40 CA         28.1475   31.4182   -1.0799 C.3       6 UNK         0.0367 
     41 CB         27.9484   32.7036   -1.8992 C.3       6 UNK        -0.1929 
     42 C          29.6328   31.2066   -0.7509 C.2       6 UNK         0.5070 
     43 O          30.3734   30.7000   -1.5982 O.2       6 UNK        -0.5237 
     44 N          30.0462   31.5941    0.4581 N.am      7 UNK        -0.4739 
     45 CA         31.3944   31.3810    0.9777 C.3       7 UNK         0.0276 
     46 CB         31.5503   29.9099    1.4061 C.3       7 UNK        -0.1927 
     47 C          31.6449   32.3039    2.1744 C.2       7 UNK         0.5013 
     48 O          30.7083   32.9307    2.6793 O.2       7 UNK        -0.5193 
     49 N          32.9040   32.3308    2.6278 N.am      8 UNK        -0.4253 
     50 CA         33.3150   32.9222    3.9008 C.3       8 UNK         0.0242 
     51 CB         34.8464   33.0649    3.9114 C.3       8 UNK        -0.2000 
     52 C          32.8528   32.0537    5.0836 C.2       8 UNK         0.4948 
     53 O          32.6762   30.8420    4.9255 O.2       8 UNK        -0.5275 
     54 N          32.7219   32.6824    6.2606 N.am      9 UNK        -0.4246 
     55 CA         32.2345   32.0792    7.5096 C.3       9 UNK         0.0261 
     56 CB         32.2197   33.1467    8.6159 C.3       9 UNK        -0.1959 
     57 C          33.0029   30.8306    7.9823 C.2       9 UNK         0.5033 
     58 O          32.4117   29.9843    8.6539 O.2       9 UNK        -0.5390 
     59 N          34.2795   30.7090    7.5906 N.am      10 UNK        -0.4215 
     60 CA         35.1312   29.5378    7.8201 C.3       10 UNK         0.0240 
     61 CB         36.5464   29.8346    7.2975 C.3       10 UNK        -0.1982 
     62 C          34.5926   28.2338    7.1973 C.2       10 UNK         0.4970 
     63 O          34.8767   27.1618    7.7336 O.2       10 UNK        -0.4916 
     64 N          33.8233   28.3442    6.1058 N.am      11 UNK        -0.4279 
     65 CA         33.1146   27.2271    5.4623 C.3       11 UNK         0.1003 
     66 C          31.6452   27.0700    5.9515 C.2       11 UNK         0.5709 
     67 N          31.1618   27.8507    6.9121 N.am      11 UNK        -0.7358 
     68 O          30.9309   26.1952    5.4709 O.2       11 UNK        -0.4999 
     69 C69        33.2144   27.3087    3.9154 C.3       12 UNK        -0.0954 
     70 S70        34.9263   27.0439    3.3459 S.3       12 UNK        -0.2268 
     71 C71        34.7933   27.3527    1.5530 C.3       12 UNK         0.0203 
     72 H72        30.6295   26.9948    1.6551 H         1 UNK         0.0888 
     73 H73        28.9869   27.6408    1.5889 H         1 UNK         0.0888 
     74 H74        29.8835   27.6505    3.1130 H         1 UNK         0.0888 
     75 H75        30.5347   24.7787    1.4386 H         1 UNK         0.3017 
     76 H76        29.5408   23.0759    3.3594 H         1 UNK         0.0873 
     77 H77        29.9182   21.2367    1.6209 H         1 UNK         0.0745 
     78 H78        30.2548   22.4786    0.4447 H         1 UNK         0.0745 
     79 H79        33.9826   22.3802    0.7780 H         1 UNK         0.0705 
     80 H80        32.5728   22.1550   -0.2204 H         1 UNK         0.0705 
     81 H81        34.4936   24.6261    1.7932 H         1 UNK         0.1334 
     82 H82        32.9642   28.0149   -0.3418 H         1 UNK         0.1417 
     83 H83        31.3900   24.1070   -1.1209 H         1 UNK         0.1562 
     84 H84        31.3009   26.2587   -2.8318 H         1 UNK         0.0748 
     85 H85        31.2790   27.7872   -1.9742 H         1 UNK         0.0748 
     86 H86        28.3157   26.6079   -3.5332 H         1 UNK         0.0940 
     87 H87        29.1290   28.0932   -3.1425 H         1 UNK         0.0940 
     88 H88        26.6050   28.3093   -3.1477 H         1 UNK         0.0703 
     89 H89        26.3157   26.9437   -0.6204 H         1 UNK         0.3081 
     90 H90        23.7505   25.0475   -1.5656 H         1 UNK         0.0719 
     91 H91        26.3384   23.4065   -1.6694 H         1 UNK         0.0809 
     92 H92        24.7589   22.7830   -1.1951 H         1 UNK         0.0809 
     93 H93        25.0254   23.3448   -2.8374 H         1 UNK         0.0809 
     94 H94        25.7999   24.5377    0.4510 H         1 UNK         0.2990 
     95 H95        25.5466   26.6887    2.4826 H         1 UNK         0.0690 
     96 H96        23.8821   26.3178    4.3271 H         1 UNK         0.0788 
     97 H97        22.7381   25.6624    3.1559 H         1 UNK         0.0788 
     98 H98        23.2441   27.3409    3.0522 H         1 UNK         0.0788 
     99 H99        26.3482   24.7406    3.0669 H         1 UNK         0.2993 
    100 H100       25.4863   21.9515    4.0926 H         1 UNK         0.0949 
    101 H101       26.0274   20.1619    2.4089 H         1 UNK         0.0767 
    102 H102       24.3609   20.6963    2.2919 H         1 UNK         0.0767 
    103 H103       25.5369   21.2470    1.1084 H         1 UNK         0.0767 
    104 H104       27.6374   22.3856    3.9159 H         1 UNK         0.3013 
    105 H105       27.8140   30.3124   -2.8453 H         1 UNK         0.3121 
    106 H106       27.5778   31.5022   -0.1515 H         1 UNK         0.0774 
    107 H107       28.2833   33.5775   -1.3389 H         1 UNK         0.0815 
    108 H108       28.5117   32.6806   -2.8332 H         1 UNK         0.0815 
    109 H109       26.8976   32.8593   -2.1440 H         1 UNK         0.0815 
    110 H110       29.4182   32.0660    1.0981 H         1 UNK         0.2987 
    111 H111       32.1198   31.6219    0.1971 H         1 UNK         0.0949 
    112 H112       30.9487   29.6902    2.2885 H         1 UNK         0.0806 
    113 H113       31.2452   29.2233    0.6176 H         1 UNK         0.0806 
    114 H114       32.5855   29.6832    1.6553 H         1 UNK         0.0806 
    115 H115       33.5927   31.7563    2.1651 H         1 UNK         0.3010 
    116 H116       32.8620   33.9124    3.9887 H         1 UNK         0.0829 
    117 H117       35.1932   33.6785    3.0795 H         1 UNK         0.0813 
    118 H118       35.1915   33.5444    4.8283 H         1 UNK         0.0813 
    119 H119       35.3437   32.0961    3.8434 H         1 UNK         0.0813 
    120 H120       32.9143   33.6737    6.2950 H         1 UNK         0.3038 
    121 H121       31.2049   31.7639    7.3280 H         1 UNK         0.0769 
    122 H122       33.2192   33.5349    8.8161 H         1 UNK         0.0811 
    123 H123       31.8371   32.7351    9.5512 H         1 UNK         0.0811 
    124 H124       31.5782   33.9872    8.3502 H         1 UNK         0.0811 
    125 H125       34.6745   31.4562    7.0392 H         1 UNK         0.3204 
    126 H126       35.1887   29.3821    8.8994 H         1 UNK         0.0748 
    127 H127       37.2143   28.9912    7.4792 H         1 UNK         0.0771 
    128 H128       36.5479   30.0251    6.2233 H         1 UNK         0.0771 
    129 H129       36.9811   30.7018    7.7949 H         1 UNK         0.0771 
    130 H130       33.5974   29.2653    5.7426 H         1 UNK         0.2980 
    131 H131       33.5934   26.2914    5.7565 H         1 UNK         0.0545 
    132 H132       31.7373   28.5483    7.3683 H         1 UNK         0.3459 
    133 H133       30.2107   27.7147    7.2137 H         1 UNK         0.3459 
    134 H134       32.5909   26.5482    3.4419 H         1 UNK         0.0616 
    135 H135       32.8560   28.2748    3.5591 H         1 UNK         0.0616 
    136 H136       35.7819   27.2291    1.1095 H         1 UNK         0.0634 
    137 H137       34.5217   28.3978    1.4038 H         1 UNK         0.0634 
@<TRIPOS>BOND
     1    1    2 1    
     2    1   72 1    
     3    1   73 1    
     4    1   74 1    
     5    2    3 2    
     6    2    4 am   BACKBONE|DICT|INTERRES
     7    4    5 1    
     8    4   75 1    
     9    5    6 1    
    10    5   35 1    
    11    5   76 1    
    12    6    7 1    
    13    6   77 1    
    14    6   78 1    
    15    7    8 1    
    16    8    9 1    
    17    8   79 1    
    18    8   80 1    
    19    9   10 ar   
    20    9   14 ar   
    21   10   11 ar   
    22   10   81 1    
    23   11   12 ar   
    24   11   71 1    
    25   12   13 ar   
    26   12   82 1    
    27   13   14 ar   
    28   13   15 1    
    29   14   83 1    
    30   15   16 1    
    31   15   84 1    
    32   15   85 1    
    33   16   17 1    
    34   17   18 1    
    35   17   86 1    
    36   17   87 1    
    37   18   19 1    
    38   18   37 1    
    39   18   88 1    
    40   19   20 am   BACKBONE|DICT|INTERRES
    41   19   89 1    
    42   20   21 2    
    43   20   22 1    
    44   22   23 1    
    45   22   24 1    
    46   22   90 1    
    47   23   91 1    
    48   23   92 1    
    49   23   93 1    
    50   24   25 am   BACKBONE|DICT|INTERRES
    51   24   94 1    
    52   25   26 2    
    53   25   27 1    
    54   27   28 1    
    55   27   29 1    
    56   27   95 1    
    57   28   96 1    
    58   28   97 1    
    59   28   98 1    
    60   29   30 am   BACKBONE|DICT|INTERRES
    61   29   99 1    
    62   30   31 2    
    63   30   32 1    
    64   32   33 1    
    65   32   34 1    
    66   32  100 1    
    67   33  101 1    
    68   33  102 1    
    69   33  103 1    
    70   34   35 am   BACKBONE|DICT|INTERRES
    71   34  104 1    
    72   35   36 2    
    73   37   38 2    
    74   37   39 am   BACKBONE|DICT|INTERRES
    75   39   40 1    
    76   39  105 1    
    77   40   41 1    
    78   40   42 1    
    79   40  106 1    
    80   41  107 1    
    81   41  108 1    
    82   41  109 1    
    83   42   43 2    
    84   42   44 am   BACKBONE|DICT|INTERRES
    85   44   45 1    
    86   44  110 1    
    87   45   46 1    
    88   45   47 1    
    89   45  111 1    
    90   46  112 1    
    91   46  113 1    
    92   46  114 1    
    93   47   48 2    
    94   47   49 am   BACKBONE|DICT|INTERRES
    95   49   50 1    
    96   49  115 1    
    97   50   51 1    
    98   50   52 1    
    99   50  116 1    
   100   51  117 1    
   101   51  118 1    
   102   51  119 1    
   103   52   53 2    
   104   52   54 am   BACKBONE|DICT|INTERRES
   105   54   55 1    
   106   54  120 1    
   107   55   56 1    
   108   55   57 1    
   109   55  121 1    
   110   56  122 1    
   111   56  123 1    
   112   56  124 1    
   113   57   58 2    
   114   57   59 am   BACKBONE|DICT|INTERRES
   115   59   60 1    
   116   59  125 1    
   117   60   61 1    
   118   60   62 1    
   119   60  126 1    
   120   61  127 1    
   121   61  128 1    
   122   61  129 1    
   123   62   63 2    
   124   62   64 am   BACKBONE|DICT|INTERRES
   125   64   65 1    
   126   64  130 1    
   127   65   66 1    
   128   65   69 1    
   129   65  131 1    
   130   66   67 am   BACKBONE|DICT|INTERRES
   131   66   68 2    
   132   67  132 1    
   133   67  133 1    
   134   69   70 1    
   135   69  134 1    
   136   69  135 1    
   137   70   71 1    
   138   71  136 1    
   139   71  137 1    
@<TRIPOS>SUBSTRUCTURE
     1 UNK         1 GROUP             0       ****    0 ROOT    
