@<TRIPOS>MOLECULE
3R136
137   139    1
SMALL
USER_CHARGES


@<TRIPOS>ATOM
      1 CA         30.8080   21.7866   -3.3055 C.3       0 UNK        -0.1979 
      2 C          29.8837   22.6429   -2.4542 C.2       0 UNK         0.4864 
      3 O          28.8400   23.0855   -2.9365 O.2       0 UNK        -0.5359 
      4 N          30.2384   22.8605   -1.1793 N.am      1 UNK        -0.4318 
      5 CA         29.5012   23.7046   -0.2265 C.3       1 UNK         0.0824 
      6 C6         30.3379   24.0428    1.0302 C.3       12 UNK        -0.0944 
      7 S7         30.9148   22.5846    1.9698 S.3       12 UNK        -0.2672 
      8 C8         29.6552   22.4311    3.2847 C.3       12 UNK         0.0333 
      9 C9         29.4792   23.7002    4.1121 C.ar      12 UNK        -0.0807 
     10 C10        30.5823   24.3268    4.6991 C.ar      12 UNK        -0.0894 
     11 C11        30.4239   25.4987    5.4440 C.ar      12 UNK        -0.0804 
     12 C12        29.1453   26.0363    5.6193 C.ar      12 UNK        -0.0824 
     13 C13        28.0287   25.4041    5.0605 C.ar      12 UNK        -0.0762 
     14 C14        28.2040   24.2421    4.3016 C.ar      12 UNK        -0.0782 
     15 C15        26.6281   25.9492    5.3134 C.3       12 UNK         0.0230 
     16 S16        25.7812   26.4672    3.7860 S.3       12 UNK        -0.2608 
     17 C17        26.8392   27.8414    3.2271 C.3       12 UNK        -0.0989 
     18 CA         27.5171   27.5339    1.8691 C.3       5 UNK         0.0716 
     19 N          26.5260   27.3742    0.8004 N.am      5 UNK        -0.4135 
     20 C          26.7917   26.9737   -0.4477 C.2       4 UNK         0.5031 
     21 O          27.9215   26.7246   -0.8744 O.2       4 UNK        -0.5229 
     22 CA         25.5932   26.8107   -1.3862 C.3       4 UNK         0.0329 
     23 CB         25.5307   27.9618   -2.4080 C.3       4 UNK        -0.2001 
     24 N          25.7332   25.5236   -2.0599 N.am      4 UNK        -0.4303 
     25 C          24.7604   24.8548   -2.6891 C.2       3 UNK         0.5044 
     26 O          23.6132   25.2795   -2.8329 O.2       3 UNK        -0.5152 
     27 CA         25.1252   23.4630   -3.2320 C.3       3 UNK         0.0319 
     28 CB         25.8814   23.5775   -4.5655 C.3       3 UNK        -0.2001 
     29 N          25.9212   22.6914   -2.2729 N.am      3 UNK        -0.4354 
     30 C          25.4129   22.1144   -1.1703 C.2       2 UNK         0.4964 
     31 O          24.2130   22.1168   -0.8931 O.2       2 UNK        -0.5047 
     32 CA         26.3921   21.4140   -0.2066 C.3       2 UNK         0.0288 
     33 CB         26.4481   19.9051   -0.4950 C.3       2 UNK        -0.2113 
     34 N          27.7463   21.9634   -0.2644 N.am      2 UNK        -0.4145 
     35 C          28.0851   23.1974    0.1351 C.2       1 UNK         0.5006 
     36 O          27.3151   23.9383    0.7460 O.2       1 UNK        -0.5103 
     37 C          28.5393   28.6385    1.5421 C.2       5 UNK         0.5055 
     38 O          28.1596   29.6838    1.0089 O.2       5 UNK        -0.5220 
     39 N          29.7967   28.4182    1.9462 N.am      6 UNK        -0.4450 
     40 CA         30.8832   29.4002    1.8734 C.3       6 UNK         0.0367 
     41 CB         32.1459   28.7227    1.3149 C.3       6 UNK        -0.1929 
     42 C          31.1310   30.0585    3.2446 C.2       6 UNK         0.5070 
     43 O          32.2613   30.4597    3.5410 O.2       6 UNK        -0.5237 
     44 N          30.0720   30.1580    4.0602 N.am      7 UNK        -0.4739 
     45 CA         30.0627   30.7711    5.3870 C.3       7 UNK         0.0276 
     46 CB         28.6733   30.5884    6.0197 C.3       7 UNK        -0.1927 
     47 C          30.4524   32.2566    5.3124 C.2       7 UNK         0.5013 
     48 O          29.7576   33.0312    4.6524 O.2       7 UNK        -0.5193 
     49 N          31.5831   32.5955    5.9443 N.am      8 UNK        -0.4253 
     50 CA         32.2807   33.8879    5.9403 C.3       8 UNK         0.0242 
     51 CB         31.3769   35.0277    6.4569 C.3       8 UNK        -0.2000 
     52 C          32.9604   34.2441    4.6012 C.2       8 UNK         0.4948 
     53 O          33.5662   35.3137    4.5148 O.2       8 UNK        -0.5275 
     54 N          32.8880   33.3565    3.5991 N.am      9 UNK        -0.4246 
     55 CA         33.5730   33.4891    2.3125 C.3       9 UNK         0.0261 
     56 CB         32.6336   33.0636    1.1715 C.3       9 UNK        -0.1959 
     57 C          34.8632   32.6575    2.2990 C.2       9 UNK         0.5033 
     58 O          35.8997   33.1686    1.8723 O.2       9 UNK        -0.5390 
     59 N          34.7846   31.4071    2.7758 N.am      10 UNK        -0.4215 
     60 CA         35.9175   30.4825    2.8769 C.3       10 UNK         0.0240 
     61 CB         35.9858   29.5964    1.6201 C.3       10 UNK        -0.1982 
     62 C          35.8896   29.6199    4.1494 C.2       10 UNK         0.4970 
     63 O          36.9324   29.0601    4.4920 O.2       10 UNK        -0.4916 
     64 N          34.7413   29.5140    4.8302 N.am      11 UNK        -0.4279 
     65 CA         34.5722   28.7191    6.0546 C.3       11 UNK         0.1003 
     66 C          33.6303   29.4084    7.0776 C.2       11 UNK         0.5709 
     67 N          33.3242   28.7598    8.1929 N.am      11 UNK        -0.7358 
     68 O          33.1930   30.5416    6.8897 O.2       11 UNK        -0.4999 
     69 C69        34.2178   27.2384    5.7412 C.3       12 UNK        -0.0954 
     70 S70        32.6493   27.0120    4.8320 S.3       12 UNK        -0.2268 
     71 C71        31.6396   26.1558    6.0778 C.3       12 UNK         0.0203 
     72 H72        31.6794   21.4467   -2.7460 H         1 UNK         0.0888 
     73 H73        30.2754   20.9094   -3.6717 H         1 UNK         0.0888 
     74 H74        31.1579   22.3566   -4.1657 H         1 UNK         0.0888 
     75 H75        31.0902   22.4512   -0.8204 H         1 UNK         0.3017 
     76 H76        29.3377   24.6485   -0.7467 H         1 UNK         0.0873 
     77 H77        31.2258   24.5989    0.7255 H         1 UNK         0.0745 
     78 H78        29.7921   24.7270    1.6809 H         1 UNK         0.0745 
     79 H79        29.9451   21.6177    3.9510 H         1 UNK         0.0705 
     80 H80        28.7098   22.1302    2.8314 H         1 UNK         0.0705 
     81 H81        31.5708   23.9088    4.5646 H         1 UNK         0.1334 
     82 H82        29.0190   26.9340    6.2090 H         1 UNK         0.1417 
     83 H83        27.3412   23.7608    3.8602 H         1 UNK         0.1562 
     84 H84        26.6541   26.7903    6.0083 H         1 UNK         0.0748 
     85 H85        26.0316   25.1747    5.7975 H         1 UNK         0.0748 
     86 H86        27.5848   28.0486    3.9968 H         1 UNK         0.0940 
     87 H87        26.2256   28.7422    3.1579 H         1 UNK         0.0940 
     88 H88        28.0540   26.5860    1.9541 H         1 UNK         0.0703 
     89 H89        25.5696   27.5619    1.0608 H         1 UNK         0.3081 
     90 H90        24.6739   26.7991   -0.7967 H         1 UNK         0.0719 
     91 H91        25.4670   28.9270   -1.9038 H         1 UNK         0.0809 
     92 H92        26.4174   27.9826   -3.0429 H         1 UNK         0.0809 
     93 H93        24.6576   27.8773   -3.0549 H         1 UNK         0.0809 
     94 H94        26.6496   25.1025   -1.9740 H         1 UNK         0.2990 
     95 H95        24.1948   22.9229   -3.4215 H         1 UNK         0.0690 
     96 H96        26.8217   24.1190   -4.4549 H         1 UNK         0.0788 
     97 H97        25.2842   24.1106   -5.3065 H         1 UNK         0.0788 
     98 H98        26.1086   22.5945   -4.9781 H         1 UNK         0.0788 
     99 H99        26.9236   22.6626   -2.4356 H         1 UNK         0.2993 
    100 H100       26.0119   21.5580    0.8073 H         1 UNK         0.0949 
    101 H101       26.8348   19.6984   -1.4938 H         1 UNK         0.0767 
    102 H102       27.0809   19.3865    0.2256 H         1 UNK         0.0767 
    103 H103       25.4544   19.4590   -0.4312 H         1 UNK         0.0767 
    104 H104       28.4430   21.4153   -0.7471 H         1 UNK         0.3013 
    105 H105       30.0176   27.5510    2.4169 H         1 UNK         0.3121 
    106 H106       30.6134   30.2043    1.1859 H         1 UNK         0.0774 
    107 H107       32.9244   29.4610    1.1242 H         1 UNK         0.0815 
    108 H108       32.5524   27.9831    2.0047 H         1 UNK         0.0815 
    109 H109       31.9423   28.2227    0.3680 H         1 UNK         0.0815 
    110 H110       29.1798   29.8553    3.7026 H         1 UNK         0.2987 
    111 H111       30.7846   30.2336    6.0032 H         1 UNK         0.0949 
    112 H112       28.4186   29.5337    6.1245 H         1 UNK         0.0806 
    113 H113       28.6403   31.0288    7.0171 H         1 UNK         0.0806 
    114 H114       27.8921   31.0664    5.4270 H         1 UNK         0.0806 
    115 H115       32.1064   31.8441    6.3967 H         1 UNK         0.3010 
    116 H116       33.0956   33.7724    6.6566 H         1 UNK         0.0829 
    117 H117       30.9154   34.7686    7.4097 H         1 UNK         0.0813 
    118 H118       31.9530   35.9402    6.6152 H         1 UNK         0.0813 
    119 H119       30.5817   35.2698    5.7515 H         1 UNK         0.0813 
    120 H120       32.3952   32.4865    3.7639 H         1 UNK         0.3038 
    121 H121       33.8458   34.5327    2.1413 H         1 UNK         0.0769 
    122 H122       31.7160   33.6522    1.1747 H         1 UNK         0.0811 
    123 H123       33.1109   33.2125    0.2020 H         1 UNK         0.0811 
    124 H124       32.3568   32.0125    1.2363 H         1 UNK         0.0811 
    125 H125       33.8754   31.0571    3.0715 H         1 UNK         0.3204 
    126 H126       36.8418   31.0616    2.9330 H         1 UNK         0.0748 
    127 H127       36.0078   30.1946    0.7090 H         1 UNK         0.0771 
    128 H128       36.8884   28.9840    1.6263 H         1 UNK         0.0771 
    129 H129       35.1369   28.9161    1.5591 H         1 UNK         0.0771 
    130 H130       33.8972   29.9773    4.5133 H         1 UNK         0.2980 
    131 H131       35.5329   28.7133    6.5726 H         1 UNK         0.0545 
    132 H132       33.6917   27.8414    8.3826 H         1 UNK         0.3459 
    133 H133       32.7276   29.2094    8.8689 H         1 UNK         0.3459 
    134 H134       35.0093   26.8034    5.1293 H         1 UNK         0.0616 
    135 H135       34.2114   26.6435    6.6550 H         1 UNK         0.0616 
    136 H136       31.3429   26.8673    6.8499 H         1 UNK         0.0634 
    137 H137       32.2361   25.3878    6.5722 H         1 UNK         0.0634 
@<TRIPOS>BOND
     1    1    2 1    
     2    1   72 1    
     3    1   73 1    
     4    1   74 1    
     5    2    3 2    
     6    2    4 am   BACKBONE|DICT|INTERRES
     7    4    5 1    
     8    4   75 1    
     9    5    6 1    
    10    5   35 1    
    11    5   76 1    
    12    6    7 1    
    13    6   77 1    
    14    6   78 1    
    15    7    8 1    
    16    8    9 1    
    17    8   79 1    
    18    8   80 1    
    19    9   10 ar   
    20    9   14 ar   
    21   10   11 ar   
    22   10   81 1    
    23   11   12 ar   
    24   11   71 1    
    25   12   13 ar   
    26   12   82 1    
    27   13   14 ar   
    28   13   15 1    
    29   14   83 1    
    30   15   16 1    
    31   15   84 1    
    32   15   85 1    
    33   16   17 1    
    34   17   18 1    
    35   17   86 1    
    36   17   87 1    
    37   18   19 1    
    38   18   37 1    
    39   18   88 1    
    40   19   20 am   BACKBONE|DICT|INTERRES
    41   19   89 1    
    42   20   21 2    
    43   20   22 1    
    44   22   23 1    
    45   22   24 1    
    46   22   90 1    
    47   23   91 1    
    48   23   92 1    
    49   23   93 1    
    50   24   25 am   BACKBONE|DICT|INTERRES
    51   24   94 1    
    52   25   26 2    
    53   25   27 1    
    54   27   28 1    
    55   27   29 1    
    56   27   95 1    
    57   28   96 1    
    58   28   97 1    
    59   28   98 1    
    60   29   30 am   BACKBONE|DICT|INTERRES
    61   29   99 1    
    62   30   31 2    
    63   30   32 1    
    64   32   33 1    
    65   32   34 1    
    66   32  100 1    
    67   33  101 1    
    68   33  102 1    
    69   33  103 1    
    70   34   35 am   BACKBONE|DICT|INTERRES
    71   34  104 1    
    72   35   36 2    
    73   37   38 2    
    74   37   39 am   BACKBONE|DICT|INTERRES
    75   39   40 1    
    76   39  105 1    
    77   40   41 1    
    78   40   42 1    
    79   40  106 1    
    80   41  107 1    
    81   41  108 1    
    82   41  109 1    
    83   42   43 2    
    84   42   44 am   BACKBONE|DICT|INTERRES
    85   44   45 1    
    86   44  110 1    
    87   45   46 1    
    88   45   47 1    
    89   45  111 1    
    90   46  112 1    
    91   46  113 1    
    92   46  114 1    
    93   47   48 2    
    94   47   49 am   BACKBONE|DICT|INTERRES
    95   49   50 1    
    96   49  115 1    
    97   50   51 1    
    98   50   52 1    
    99   50  116 1    
   100   51  117 1    
   101   51  118 1    
   102   51  119 1    
   103   52   53 2    
   104   52   54 am   BACKBONE|DICT|INTERRES
   105   54   55 1    
   106   54  120 1    
   107   55   56 1    
   108   55   57 1    
   109   55  121 1    
   110   56  122 1    
   111   56  123 1    
   112   56  124 1    
   113   57   58 2    
   114   57   59 am   BACKBONE|DICT|INTERRES
   115   59   60 1    
   116   59  125 1    
   117   60   61 1    
   118   60   62 1    
   119   60  126 1    
   120   61  127 1    
   121   61  128 1    
   122   61  129 1    
   123   62   63 2    
   124   62   64 am   BACKBONE|DICT|INTERRES
   125   64   65 1    
   126   64  130 1    
   127   65   66 1    
   128   65   69 1    
   129   65  131 1    
   130   66   67 am   BACKBONE|DICT|INTERRES
   131   66   68 2    
   132   67  132 1    
   133   67  133 1    
   134   69   70 1    
   135   69  134 1    
   136   69  135 1    
   137   70   71 1    
   138   71  136 1    
   139   71  137 1    
@<TRIPOS>SUBSTRUCTURE
     1 UNK         1 GROUP             0       ****    0 ROOT    
