@<TRIPOS>MOLECULE
3R136
137   139    1
SMALL
USER_CHARGES


@<TRIPOS>ATOM
      1 CA         26.5787   20.3877    5.6440 C.3       0 UNK        -0.1979 
      2 C          27.0176   21.6331    4.8877 C.2       0 UNK         0.4864 
      3 O          26.9759   22.7286    5.4490 O.2       0 UNK        -0.5359 
      4 N          27.4302   21.4642    3.6221 N.am      1 UNK        -0.4318 
      5 CA         27.9118   22.5103    2.7051 C.3       1 UNK         0.0824 
      6 C6         29.2597   23.1514    3.1358 C.3       12 UNK        -0.0944 
      7 S7         30.5987   21.9431    3.4189 S.3       12 UNK        -0.2672 
      8 C8         31.3997   21.8485    1.7828 C.3       12 UNK         0.0333 
      9 C9         31.9799   23.1799    1.3193 C.ar      12 UNK        -0.0807 
     10 C10        33.0202   23.7890    2.0312 C.ar      12 UNK        -0.0894 
     11 C11        33.5530   25.0096    1.6034 C.ar      12 UNK        -0.0804 
     12 C12        33.0487   25.6114    0.4479 C.ar      12 UNK        -0.0824 
     13 C13        32.0178   25.0091   -0.2769 C.ar      12 UNK        -0.0762 
     14 C14        31.4835   23.7955    0.1645 C.ar      12 UNK        -0.0782 
     15 C15        31.4932   25.6742   -1.5381 C.3       12 UNK         0.0230 
     16 S16        30.1440   26.8282   -1.1465 S.3       12 UNK        -0.2608 
     17 C17        30.3847   28.1245   -2.4155 C.3       12 UNK        -0.0989 
     18 CA         29.9111   29.5372   -1.9658 C.3       5 UNK         0.0716 
     19 N          28.4653   29.5962   -1.7727 N.am      5 UNK        -0.4135 
     20 C          27.5478   29.6561   -2.7380 C.2       4 UNK         0.5031 
     21 O          27.8135   29.6973   -3.9412 O.2       4 UNK        -0.5229 
     22 CA         26.0831   29.6027   -2.2752 C.3       4 UNK         0.0329 
     23 CB         25.1348   30.3195   -3.2539 C.3       4 UNK        -0.2001 
     24 N          25.6713   28.2056   -2.1441 N.am      4 UNK        -0.4303 
     25 C          25.9396   27.4244   -1.0908 C.2       3 UNK         0.5044 
     26 O          26.4893   27.8201   -0.0592 O.2       3 UNK        -0.5152 
     27 CA         25.5473   25.9495   -1.2341 C.3       3 UNK         0.0319 
     28 CB         26.6407   25.1607   -1.9769 C.3       3 UNK        -0.2001 
     29 N          25.3448   25.3668    0.0886 N.am      3 UNK        -0.4354 
     30 C          24.4621   24.4100    0.3913 C.2       2 UNK         0.4964 
     31 O          23.7204   23.8770   -0.4368 O.2       2 UNK        -0.5047 
     32 CA         24.4275   23.9520    1.8621 C.3       2 UNK         0.0288 
     33 CB         23.1430   23.1759    2.2102 C.3       2 UNK        -0.2113 
     34 N          25.5852   23.1143    2.1814 N.am      2 UNK        -0.4145 
     35 C          26.8260   23.5713    2.4038 C.2       1 UNK         0.5006 
     36 O          27.1124   24.7702    2.3825 O.2       1 UNK        -0.5103 
     37 C          30.5902   30.0612   -0.6838 C.2       5 UNK         0.5055 
     38 O          29.9152   30.6495    0.1664 O.2       5 UNK        -0.5220 
     39 N          31.8977   29.7994   -0.5271 N.am      6 UNK        -0.4450 
     40 CA         32.6980   30.1446    0.6578 C.3       6 UNK         0.0367 
     41 CB         34.1683   29.7701    0.4149 C.3       6 UNK        -0.1929 
     42 C          32.1943   29.5331    1.9814 C.2       6 UNK         0.5070 
     43 O          32.5536   30.0326    3.0466 O.2       6 UNK        -0.5237 
     44 N          31.3265   28.5148    1.9095 N.am      7 UNK        -0.4739 
     45 CA         30.5756   27.9762    3.0450 C.3       7 UNK         0.0276 
     46 CB         29.7649   26.7621    2.5794 C.3       7 UNK        -0.1927 
     47 C          29.6646   29.0179    3.7181 C.2       7 UNK         0.5013 
     48 O          29.5394   29.0020    4.9426 O.2       7 UNK        -0.5193 
     49 N          29.1070   29.9503    2.9294 N.am      8 UNK        -0.4253 
     50 CA         28.3215   31.0861    3.4230 C.3       8 UNK         0.0242 
     51 CB         27.5287   31.7052    2.2603 C.3       8 UNK        -0.2000 
     52 C          29.1844   32.1530    4.1235 C.2       8 UNK         0.4948 
     53 O          28.6565   32.9111    4.9373 O.2       8 UNK        -0.5275 
     54 N          30.4904   32.1785    3.8209 N.am      9 UNK        -0.4246 
     55 CA         31.4962   33.0188    4.4746 C.3       9 UNK         0.0261 
     56 CB         32.5364   33.4568    3.4275 C.3       9 UNK        -0.1959 
     57 C          32.1718   32.3099    5.6670 C.2       9 UNK         0.5033 
     58 O          33.0669   32.9009    6.2729 O.2       9 UNK        -0.5390 
     59 N          31.7385   31.0787    5.9860 N.am      10 UNK        -0.4215 
     60 CA         32.2218   30.2042    7.0584 C.3       10 UNK         0.0240 
     61 CB         31.9142   30.8093    8.4457 C.3       10 UNK        -0.1982 
     62 C          33.6991   29.8050    6.8813 C.2       10 UNK         0.4970 
     63 O          34.5200   30.0646    7.7642 O.2       10 UNK        -0.4916 
     64 N          34.0025   29.1738    5.7390 N.am      11 UNK        -0.4279 
     65 CA         35.2965   28.5454    5.4220 C.3       11 UNK         0.1003 
     66 C          35.7969   27.5182    6.4818 C.2       11 UNK         0.5709 
     67 N          37.1067   27.3443    6.6012 N.am      11 UNK        -0.7358 
     68 O          35.0179   26.8574    7.1674 O.2       11 UNK        -0.4999 
     69 C69        35.2881   27.9275    3.9968 C.3       12 UNK        -0.0954 
     70 S70        33.9770   26.6820    3.7406 S.3       12 UNK        -0.2268 
     71 C71        34.6659   25.6897    2.3857 C.3       12 UNK         0.0203 
     72 H72        25.5397   20.4858    5.9575 H         1 UNK         0.0888 
     73 H73        26.6657   19.4876    5.0356 H         1 UNK         0.0888 
     74 H74        27.1927   20.2547    6.5344 H         1 UNK         0.0888 
     75 H75        27.4415   20.5284    3.2405 H         1 UNK         0.3017 
     76 H76        28.0900   22.0095    1.7522 H         1 UNK         0.0873 
     77 H77        29.5895   23.8657    2.3828 H         1 UNK         0.0745 
     78 H78        29.1309   23.7262    4.0544 H         1 UNK         0.0745 
     79 H79        32.2028   21.1119    1.8295 H         1 UNK         0.0705 
     80 H80        30.6774   21.4653    1.0605 H         1 UNK         0.0705 
     81 H81        33.4041   23.3196    2.9268 H         1 UNK         0.1334 
     82 H82        33.4563   26.5536    0.1125 H         1 UNK         0.1417 
     83 H83        30.6810   23.3326   -0.3936 H         1 UNK         0.1562 
     84 H84        31.1306   24.9260   -2.2446 H         1 UNK         0.0748 
     85 H85        32.3126   26.1921   -2.0376 H         1 UNK         0.0748 
     86 H86        29.8447   27.8199   -3.3134 H         1 UNK         0.0940 
     87 H87        31.4315   28.1639   -2.7181 H         1 UNK         0.0940 
     88 H88        30.1704   30.2503   -2.7512 H         1 UNK         0.0703 
     89 H89        28.1709   29.5709   -0.8045 H         1 UNK         0.3081 
     90 H90        26.0038   30.1012   -1.3061 H         1 UNK         0.0719 
     91 H91        25.1350   29.8528   -4.2399 H         1 UNK         0.0809 
     92 H92        24.1095   30.3177   -2.8836 H         1 UNK         0.0809 
     93 H93        25.4290   31.3615   -3.3867 H         1 UNK         0.0809 
     94 H94        25.2497   27.7876   -2.9614 H         1 UNK         0.2990 
     95 H95        24.6154   25.9014   -1.8019 H         1 UNK         0.0690 
     96 H96        26.3433   24.1238   -2.1338 H         1 UNK         0.0788 
     97 H97        27.5789   25.1579   -1.4203 H         1 UNK         0.0788 
     98 H98        26.8441   25.5920   -2.9579 H         1 UNK         0.0788 
     99 H99        25.9372   25.7463    0.8216 H         1 UNK         0.2993 
    100 H100       24.4534   24.8469    2.4884 H         1 UNK         0.0949 
    101 H101       23.1069   22.9264    3.2709 H         1 UNK         0.0767 
    102 H102       22.2561   23.7711    1.9882 H         1 UNK         0.0767 
    103 H103       23.0627   22.2466    1.6445 H         1 UNK         0.0767 
    104 H104       25.4290   22.1172    2.2021 H         1 UNK         0.3013 
    105 H105       32.3818   29.3076   -1.2636 H         1 UNK         0.3121 
    106 H106       32.6421   31.2288    0.7751 H         1 UNK         0.0774 
    107 H107       34.7924   30.0936    1.2490 H         1 UNK         0.0815 
    108 H108       34.3032   28.6943    0.3082 H         1 UNK         0.0815 
    109 H109       34.5601   30.2511   -0.4813 H         1 UNK         0.0815 
    110 H110       31.0906   28.1472    0.9984 H         1 UNK         0.2987 
    111 H111       31.2914   27.6414    3.7962 H         1 UNK         0.0949 
    112 H112       29.0163   27.0310    1.8324 H         1 UNK         0.0806 
    113 H113       30.4163   26.0052    2.1436 H         1 UNK         0.0806 
    114 H114       29.2395   26.2998    3.4159 H         1 UNK         0.0806 
    115 H115       29.3132   29.9421    1.9347 H         1 UNK         0.3010 
    116 H116       27.6067   30.7086    4.1576 H         1 UNK         0.0829 
    117 H117       26.9059   30.9618    1.7622 H         1 UNK         0.0813 
    118 H118       26.8673   32.4951    2.6188 H         1 UNK         0.0813 
    119 H119       28.1866   32.1491    1.5124 H         1 UNK         0.0813 
    120 H120       30.8486   31.4938    3.1674 H         1 UNK         0.3038 
    121 H121       31.0173   33.9185    4.8666 H         1 UNK         0.0769 
    122 H122       33.1112   32.6126    3.0467 H         1 UNK         0.0811 
    123 H123       33.2478   34.1633    3.8570 H         1 UNK         0.0811 
    124 H124       32.0633   33.9521    2.5795 H         1 UNK         0.0811 
    125 H125       31.0078   30.6796    5.4106 H         1 UNK         0.3204 
    126 H126       31.6468   29.2803    6.9763 H         1 UNK         0.0748 
    127 H127       32.1817   30.1129    9.2414 H         1 UNK         0.0771 
    128 H128       32.4694   31.7310    8.6223 H         1 UNK         0.0771 
    129 H129       30.8526   31.0317    8.5538 H         1 UNK         0.0771 
    130 H130       33.2856   29.0615    5.0346 H         1 UNK         0.2980 
    131 H131       36.0210   29.3617    5.4162 H         1 UNK         0.0545 
    132 H132       37.7576   27.8702    6.0390 H         1 UNK         0.3459 
    133 H133       37.4515   26.6752    7.2716 H         1 UNK         0.3459 
    134 H134       36.2582   27.4831    3.7667 H         1 UNK         0.0616 
    135 H135       35.1427   28.7174    3.2594 H         1 UNK         0.0616 
    136 H136       35.2503   26.3301    1.7229 H         1 UNK         0.0634 
    137 H137       35.3555   24.9488    2.7925 H         1 UNK         0.0634 
@<TRIPOS>BOND
     1    1    2 1    
     2    1   72 1    
     3    1   73 1    
     4    1   74 1    
     5    2    3 2    
     6    2    4 am   BACKBONE|DICT|INTERRES
     7    4    5 1    
     8    4   75 1    
     9    5    6 1    
    10    5   35 1    
    11    5   76 1    
    12    6    7 1    
    13    6   77 1    
    14    6   78 1    
    15    7    8 1    
    16    8    9 1    
    17    8   79 1    
    18    8   80 1    
    19    9   10 ar   
    20    9   14 ar   
    21   10   11 ar   
    22   10   81 1    
    23   11   12 ar   
    24   11   71 1    
    25   12   13 ar   
    26   12   82 1    
    27   13   14 ar   
    28   13   15 1    
    29   14   83 1    
    30   15   16 1    
    31   15   84 1    
    32   15   85 1    
    33   16   17 1    
    34   17   18 1    
    35   17   86 1    
    36   17   87 1    
    37   18   19 1    
    38   18   37 1    
    39   18   88 1    
    40   19   20 am   BACKBONE|DICT|INTERRES
    41   19   89 1    
    42   20   21 2    
    43   20   22 1    
    44   22   23 1    
    45   22   24 1    
    46   22   90 1    
    47   23   91 1    
    48   23   92 1    
    49   23   93 1    
    50   24   25 am   BACKBONE|DICT|INTERRES
    51   24   94 1    
    52   25   26 2    
    53   25   27 1    
    54   27   28 1    
    55   27   29 1    
    56   27   95 1    
    57   28   96 1    
    58   28   97 1    
    59   28   98 1    
    60   29   30 am   BACKBONE|DICT|INTERRES
    61   29   99 1    
    62   30   31 2    
    63   30   32 1    
    64   32   33 1    
    65   32   34 1    
    66   32  100 1    
    67   33  101 1    
    68   33  102 1    
    69   33  103 1    
    70   34   35 am   BACKBONE|DICT|INTERRES
    71   34  104 1    
    72   35   36 2    
    73   37   38 2    
    74   37   39 am   BACKBONE|DICT|INTERRES
    75   39   40 1    
    76   39  105 1    
    77   40   41 1    
    78   40   42 1    
    79   40  106 1    
    80   41  107 1    
    81   41  108 1    
    82   41  109 1    
    83   42   43 2    
    84   42   44 am   BACKBONE|DICT|INTERRES
    85   44   45 1    
    86   44  110 1    
    87   45   46 1    
    88   45   47 1    
    89   45  111 1    
    90   46  112 1    
    91   46  113 1    
    92   46  114 1    
    93   47   48 2    
    94   47   49 am   BACKBONE|DICT|INTERRES
    95   49   50 1    
    96   49  115 1    
    97   50   51 1    
    98   50   52 1    
    99   50  116 1    
   100   51  117 1    
   101   51  118 1    
   102   51  119 1    
   103   52   53 2    
   104   52   54 am   BACKBONE|DICT|INTERRES
   105   54   55 1    
   106   54  120 1    
   107   55   56 1    
   108   55   57 1    
   109   55  121 1    
   110   56  122 1    
   111   56  123 1    
   112   56  124 1    
   113   57   58 2    
   114   57   59 am   BACKBONE|DICT|INTERRES
   115   59   60 1    
   116   59  125 1    
   117   60   61 1    
   118   60   62 1    
   119   60  126 1    
   120   61  127 1    
   121   61  128 1    
   122   61  129 1    
   123   62   63 2    
   124   62   64 am   BACKBONE|DICT|INTERRES
   125   64   65 1    
   126   64  130 1    
   127   65   66 1    
   128   65   69 1    
   129   65  131 1    
   130   66   67 am   BACKBONE|DICT|INTERRES
   131   66   68 2    
   132   67  132 1    
   133   67  133 1    
   134   69   70 1    
   135   69  134 1    
   136   69  135 1    
   137   70   71 1    
   138   71  136 1    
   139   71  137 1    
@<TRIPOS>SUBSTRUCTURE
     1 UNK         1 GROUP             0       ****    0 ROOT    
