@<TRIPOS>MOLECULE
3R136
137   139    1
SMALL
USER_CHARGES


@<TRIPOS>ATOM
      1 CA         28.2266   26.9863   -2.8828 C.3       0 UNK        -0.1979 
      2 C          28.2875   25.5518   -2.3802 C.2       0 UNK         0.4864 
      3 O          28.2229   24.6160   -3.1780 O.2       0 UNK        -0.5359 
      4 N          28.3680   25.3764   -1.0553 N.am      1 UNK        -0.4318 
      5 CA         28.4518   24.1248   -0.2874 C.3       1 UNK         0.0824 
      6 C6         29.6561   23.2212   -0.6474 C.3       12 UNK        -0.0944 
      7 S7         31.2460   24.1085   -0.4799 S.3       12 UNK        -0.2672 
      8 C8         32.2367   22.9673    0.5342 C.3       12 UNK         0.0333 
      9 C9         32.3453   23.4319    1.9794 C.ar      12 UNK        -0.0807 
     10 C10        33.4517   24.1875    2.3843 C.ar      12 UNK        -0.0894 
     11 C11        33.6105   24.5605    3.7225 C.ar      12 UNK        -0.0804 
     12 C12        32.6435   24.1770    4.6541 C.ar      12 UNK        -0.0824 
     13 C13        31.5121   23.4571    4.2582 C.ar      12 UNK        -0.0762 
     14 C14        31.3715   23.0761    2.9194 C.ar      12 UNK        -0.0782 
     15 C15        30.4543   23.0943    5.2945 C.3       12 UNK         0.0230 
     16 S16        28.9235   24.0835    5.1562 S.3       12 UNK        -0.2608 
     17 C17        29.5213   25.7733    4.7966 C.3       12 UNK        -0.0989 
     18 CA         29.1927   26.1401    3.3284 C.3       5 UNK         0.0716 
     19 N          27.7689   26.4738    3.1800 N.am      5 UNK        -0.4135 
     20 C          27.1421   26.8804    2.0693 C.2       4 UNK         0.5031 
     21 O          27.6970   27.0778    0.9835 O.2       4 UNK        -0.5229 
     22 CA         25.6325   27.1066    2.1744 C.3       4 UNK         0.0329 
     23 CB         25.3283   28.5732    2.5307 C.3       4 UNK        -0.2001 
     24 N          25.0496   26.7618    0.8817 N.am      4 UNK        -0.4303 
     25 C          23.7620   26.5010    0.6324 C.2       3 UNK         0.5044 
     26 O          22.8713   26.5394    1.4818 O.2       3 UNK        -0.5152 
     27 CA         23.4194   26.1203   -0.8170 C.3       3 UNK         0.0319 
     28 CB         23.5730   27.3288   -1.7571 C.3       3 UNK        -0.2001 
     29 N          24.2517   25.0148   -1.2974 N.am      3 UNK        -0.4354 
     30 C          24.0538   23.7236   -0.9905 C.2       2 UNK         0.4964 
     31 O          23.1157   23.3137   -0.3065 O.2       2 UNK        -0.5047 
     32 CA         25.0868   22.7207   -1.5347 C.3       2 UNK         0.0288 
     33 CB         24.7942   22.3749   -3.0039 C.3       2 UNK        -0.2113 
     34 N          26.4547   23.2276   -1.4135 N.am      2 UNK        -0.4145 
     35 C          27.1185   23.3541   -0.2574 C.2       1 UNK         0.5006 
     36 O          26.6947   22.9338    0.8199 O.2       1 UNK        -0.5103 
     37 C          30.1179   27.2443    2.7800 C.2       5 UNK         0.5055 
     38 O          30.2648   28.2876    3.4179 O.2       5 UNK        -0.5220 
     39 N          30.6657   26.9913    1.5792 N.am      6 UNK        -0.4450 
     40 CA         31.4832   27.8860    0.7524 C.3       6 UNK         0.0367 
     41 CB         32.8886   28.0287    1.3539 C.3       6 UNK        -0.1929 
     42 C          30.8184   29.2442    0.4444 C.2       6 UNK         0.5070 
     43 O          31.5125   30.2590    0.3392 O.2       6 UNK        -0.5237 
     44 N          29.4837   29.2330    0.3052 N.am      7 UNK        -0.4739 
     45 CA         28.5700   30.3438    0.0147 C.3       7 UNK         0.0276 
     46 CB         28.8344   30.9433   -1.3814 C.3       7 UNK        -0.1927 
     47 C          28.5403   31.4275    1.1060 C.2       7 UNK         0.5013 
     48 O          27.4959   31.6325    1.7252 O.2       7 UNK        -0.5193 
     49 N          29.6756   32.1020    1.3097 N.am      8 UNK        -0.4253 
     50 CA         29.8598   33.1910    2.2675 C.3       8 UNK         0.0242 
     51 CB         29.4112   34.5194    1.6257 C.3       8 UNK        -0.2000 
     52 C          31.2968   33.2818    2.8143 C.2       8 UNK         0.4948 
     53 O          31.5798   34.2272    3.5534 O.2       8 UNK        -0.5275 
     54 N          32.1904   32.3431    2.4585 N.am      9 UNK        -0.4246 
     55 CA         33.5691   32.3119    2.9610 C.3       9 UNK         0.0261 
     56 CB         34.4225   31.3904    2.0764 C.3       9 UNK        -0.1959 
     57 C          33.6311   31.8643    4.4327 C.2       9 UNK         0.5033 
     58 O          32.7320   31.1668    4.9105 O.2       9 UNK        -0.5390 
     59 N          34.7086   32.2572    5.1229 N.am      10 UNK        -0.4215 
     60 CA         34.9373   32.0322    6.5540 C.3       10 UNK         0.0240 
     61 CB         35.9463   33.0806    7.0624 C.3       10 UNK        -0.1982 
     62 C          35.3581   30.5871    6.8997 C.2       10 UNK         0.4970 
     63 O          36.3869   30.3858    7.5487 O.2       10 UNK        -0.4916 
     64 N          34.5545   29.6062    6.4755 N.am      11 UNK        -0.4279 
     65 CA         34.6581   28.2002    6.8922 C.3       11 UNK         0.1003 
     66 C          34.2709   28.0102    8.3853 C.2       11 UNK         0.5709 
     67 N          34.8873   27.0550    9.0683 N.am      11 UNK        -0.7358 
     68 O          33.3948   28.6905    8.9174 O.2       11 UNK        -0.4999 
     69 C69        33.8111   27.2733    5.9835 C.3       12 UNK        -0.0954 
     70 S70        34.5188   27.1300    4.3090 S.3       12 UNK        -0.2268 
     71 C71        34.8429   25.3419    4.1653 C.3       12 UNK         0.0203 
     72 H72        27.3421   27.1320   -3.5021 H         1 UNK         0.0888 
     73 H73        28.1875   27.7027   -2.0625 H         1 UNK         0.0888 
     74 H74        29.1065   27.2084   -3.4858 H         1 UNK         0.0888 
     75 H75        28.2993   26.1962   -0.4563 H         1 UNK         0.3017 
     76 H76        28.6074   24.4444    0.7417 H         1 UNK         0.0873 
     77 H77        29.6605   22.3387   -0.0057 H         1 UNK         0.0745 
     78 H78        29.5743   22.8502   -1.6703 H         1 UNK         0.0745 
     79 H79        33.2332   22.9024    0.0945 H         1 UNK         0.0705 
     80 H80        31.8344   21.9545    0.4905 H         1 UNK         0.0705 
     81 H81        34.2032   24.4676    1.6586 H         1 UNK         0.1334 
     82 H82        32.7623   24.4468    5.6931 H         1 UNK         0.1417 
     83 H83        30.5081   22.5011    2.6127 H         1 UNK         0.1562 
     84 H84        30.8523   23.2153    6.3032 H         1 UNK         0.0748 
     85 H85        30.2003   22.0378    5.1981 H         1 UNK         0.0748 
     86 H86        30.5879   25.8486    5.0068 H         1 UNK         0.0940 
     87 H87        29.0495   26.4753    5.4866 H         1 UNK         0.0940 
     88 H88        29.3729   25.2526    2.7209 H         1 UNK         0.0703 
     89 H89        27.2168   26.3541    4.0165 H         1 UNK         0.3081 
     90 H90        25.2217   26.4436    2.9388 H         1 UNK         0.0719 
     91 H91        25.7084   29.2586    1.7719 H         1 UNK         0.0809 
     92 H92        24.2569   28.7468    2.6304 H         1 UNK         0.0809 
     93 H93        25.7893   28.8510    3.4794 H         1 UNK         0.0809 
     94 H94        25.7271   26.6984    0.1344 H         1 UNK         0.2990 
     95 H95        22.3729   25.8078   -0.8428 H         1 UNK         0.0690 
     96 H96        23.2460   27.0856   -2.7683 H         1 UNK         0.0788 
     97 H97        24.6046   27.6783   -1.8149 H         1 UNK         0.0788 
     98 H98        22.9640   28.1670   -1.4152 H         1 UNK         0.0788 
     99 H99        25.0371   25.2525   -1.8838 H         1 UNK         0.2993 
    100 H100       25.0050   21.8049   -0.9446 H         1 UNK         0.0949 
    101 H101       24.8864   23.2464   -3.6534 H         1 UNK         0.0767 
    102 H102       25.4773   21.6094   -3.3729 H         1 UNK         0.0767 
    103 H103       23.7811   21.9867   -3.1188 H         1 UNK         0.0767 
    104 H104       26.9053   23.5927   -2.2496 H         1 UNK         0.3013 
    105 H105       30.4809   26.0916    1.1573 H         1 UNK         0.3121 
    106 H106       31.5924   27.3891   -0.2127 H         1 UNK         0.0774 
    107 H107       33.5407   28.6154    0.7063 H         1 UNK         0.0815 
    108 H108       32.8463   28.5186    2.3263 H         1 UNK         0.0815 
    109 H109       33.3598   27.0554    1.4871 H         1 UNK         0.0815 
    110 H110       29.0096   28.3567    0.5072 H         1 UNK         0.2987 
    111 H111       27.5720   29.9022   -0.0082 H         1 UNK         0.0949 
    112 H112       28.7344   30.1885   -2.1609 H         1 UNK         0.0806 
    113 H113       28.1184   31.7351   -1.6055 H         1 UNK         0.0806 
    114 H114       29.8315   31.3760   -1.4651 H         1 UNK         0.0806 
    115 H115       30.4871   31.7997    0.7779 H         1 UNK         0.3010 
    116 H116       29.2273   32.9985    3.1369 H         1 UNK         0.0829 
    117 H117       28.3672   34.4788    1.3145 H         1 UNK         0.0813 
    118 H118       29.5024   35.3496    2.3273 H         1 UNK         0.0813 
    119 H119       30.0131   34.7630    0.7495 H         1 UNK         0.0813 
    120 H120       31.9038   31.5568    1.8871 H         1 UNK         0.3038 
    121 H121       33.9750   33.3235    2.8882 H         1 UNK         0.0769 
    122 H122       35.4832   31.5064    2.3017 H         1 UNK         0.0811 
    123 H123       34.2899   31.6107    1.0169 H         1 UNK         0.0811 
    124 H124       34.1770   30.3433    2.2375 H         1 UNK         0.0811 
    125 H125       35.4216   32.7842    4.6388 H         1 UNK         0.3204 
    126 H126       33.9953   32.2102    7.0775 H         1 UNK         0.0748 
    127 H127       36.0972   32.9904    8.1392 H         1 UNK         0.0771 
    128 H128       36.9208   32.9684    6.5854 H         1 UNK         0.0771 
    129 H129       35.5943   34.0951    6.8740 H         1 UNK         0.0771 
    130 H130       33.7289   29.8684    5.9448 H         1 UNK         0.2980 
    131 H131       35.7052   27.9068    6.7915 H         1 UNK         0.0545 
    132 H132       35.6010   26.4850    8.6416 H         1 UNK         0.3459 
    133 H133       34.6400   26.9071   10.0343 H         1 UNK         0.3459 
    134 H134       32.7849   27.6366    5.9014 H         1 UNK         0.0616 
    135 H135       33.7478   26.2789    6.4239 H         1 UNK         0.0616 
    136 H136       35.2197   24.9524    5.1122 H         1 UNK         0.0634 
    137 H137       35.6483   25.1996    3.4433 H         1 UNK         0.0634 
@<TRIPOS>BOND
     1    1    2 1    
     2    1   72 1    
     3    1   73 1    
     4    1   74 1    
     5    2    3 2    
     6    2    4 am   BACKBONE|DICT|INTERRES
     7    4    5 1    
     8    4   75 1    
     9    5    6 1    
    10    5   35 1    
    11    5   76 1    
    12    6    7 1    
    13    6   77 1    
    14    6   78 1    
    15    7    8 1    
    16    8    9 1    
    17    8   79 1    
    18    8   80 1    
    19    9   10 ar   
    20    9   14 ar   
    21   10   11 ar   
    22   10   81 1    
    23   11   12 ar   
    24   11   71 1    
    25   12   13 ar   
    26   12   82 1    
    27   13   14 ar   
    28   13   15 1    
    29   14   83 1    
    30   15   16 1    
    31   15   84 1    
    32   15   85 1    
    33   16   17 1    
    34   17   18 1    
    35   17   86 1    
    36   17   87 1    
    37   18   19 1    
    38   18   37 1    
    39   18   88 1    
    40   19   20 am   BACKBONE|DICT|INTERRES
    41   19   89 1    
    42   20   21 2    
    43   20   22 1    
    44   22   23 1    
    45   22   24 1    
    46   22   90 1    
    47   23   91 1    
    48   23   92 1    
    49   23   93 1    
    50   24   25 am   BACKBONE|DICT|INTERRES
    51   24   94 1    
    52   25   26 2    
    53   25   27 1    
    54   27   28 1    
    55   27   29 1    
    56   27   95 1    
    57   28   96 1    
    58   28   97 1    
    59   28   98 1    
    60   29   30 am   BACKBONE|DICT|INTERRES
    61   29   99 1    
    62   30   31 2    
    63   30   32 1    
    64   32   33 1    
    65   32   34 1    
    66   32  100 1    
    67   33  101 1    
    68   33  102 1    
    69   33  103 1    
    70   34   35 am   BACKBONE|DICT|INTERRES
    71   34  104 1    
    72   35   36 2    
    73   37   38 2    
    74   37   39 am   BACKBONE|DICT|INTERRES
    75   39   40 1    
    76   39  105 1    
    77   40   41 1    
    78   40   42 1    
    79   40  106 1    
    80   41  107 1    
    81   41  108 1    
    82   41  109 1    
    83   42   43 2    
    84   42   44 am   BACKBONE|DICT|INTERRES
    85   44   45 1    
    86   44  110 1    
    87   45   46 1    
    88   45   47 1    
    89   45  111 1    
    90   46  112 1    
    91   46  113 1    
    92   46  114 1    
    93   47   48 2    
    94   47   49 am   BACKBONE|DICT|INTERRES
    95   49   50 1    
    96   49  115 1    
    97   50   51 1    
    98   50   52 1    
    99   50  116 1    
   100   51  117 1    
   101   51  118 1    
   102   51  119 1    
   103   52   53 2    
   104   52   54 am   BACKBONE|DICT|INTERRES
   105   54   55 1    
   106   54  120 1    
   107   55   56 1    
   108   55   57 1    
   109   55  121 1    
   110   56  122 1    
   111   56  123 1    
   112   56  124 1    
   113   57   58 2    
   114   57   59 am   BACKBONE|DICT|INTERRES
   115   59   60 1    
   116   59  125 1    
   117   60   61 1    
   118   60   62 1    
   119   60  126 1    
   120   61  127 1    
   121   61  128 1    
   122   61  129 1    
   123   62   63 2    
   124   62   64 am   BACKBONE|DICT|INTERRES
   125   64   65 1    
   126   64  130 1    
   127   65   66 1    
   128   65   69 1    
   129   65  131 1    
   130   66   67 am   BACKBONE|DICT|INTERRES
   131   66   68 2    
   132   67  132 1    
   133   67  133 1    
   134   69   70 1    
   135   69  134 1    
   136   69  135 1    
   137   70   71 1    
   138   71  136 1    
   139   71  137 1    
@<TRIPOS>SUBSTRUCTURE
     1 UNK         1 GROUP             0       ****    0 ROOT    
