@<TRIPOS>MOLECULE
3R136
137   139    1
SMALL
USER_CHARGES


@<TRIPOS>ATOM
      1 CA         30.2732   17.2837   -0.4782 C.3       0 UNK        -0.1979 
      2 C          30.7272   18.7346   -0.5471 C.2       0 UNK         0.4864 
      3 O          31.3326   19.1395   -1.5412 O.2       0 UNK        -0.5359 
      4 N          30.4477   19.5150    0.5039 N.am      1 UNK        -0.4318 
      5 CA         30.7363   20.9495    0.5829 C.3       1 UNK         0.0824 
      6 C6         30.7971   21.4286    2.0569 C.3       12 UNK        -0.0944 
      7 S7         29.2382   21.2539    2.9966 S.3       12 UNK        -0.2672 
      8 C8         29.8260   21.3663    4.7171 C.3       12 UNK         0.0333 
      9 C9         30.5572   22.6740    4.9863 C.ar      12 UNK        -0.0807 
     10 C10        31.9528   22.7148    4.9267 C.ar      12 UNK        -0.0894 
     11 C11        32.6377   23.9119    5.1422 C.ar      12 UNK        -0.0804 
     12 C12        31.9199   25.0686    5.4505 C.ar      12 UNK        -0.0824 
     13 C13        30.5216   25.0470    5.5056 C.ar      12 UNK        -0.0762 
     14 C14        29.8457   23.8421    5.2808 C.ar      12 UNK        -0.0782 
     15 C15        29.7461   26.3249    5.8041 C.3       12 UNK         0.0230 
     16 S16        30.2680   27.6886    4.7175 S.3       12 UNK        -0.2608 
     17 C17        29.2210   29.0638    5.2931 C.3       12 UNK        -0.0989 
     18 CA         28.7263   29.8784    4.0774 C.3       5 UNK         0.0716 
     19 N          27.7818   29.1169    3.2537 N.am      5 UNK        -0.4135 
     20 C          27.4066   29.4222    2.0075 C.2       4 UNK         0.5031 
     21 O          27.7225   30.4770    1.4575 O.2       4 UNK        -0.5229 
     22 CA         26.5201   28.3987    1.2677 C.3       4 UNK         0.0329 
     23 CB         26.2963   28.7831   -0.2069 C.3       4 UNK        -0.2001 
     24 N          27.0349   27.0260    1.3171 N.am      4 UNK        -0.4303 
     25 C          27.0502   26.2121    2.3790 C.2       3 UNK         0.5044 
     26 O          26.6697   26.5622    3.4977 O.2       3 UNK        -0.5152 
     27 CA         27.5665   24.7722    2.1990 C.3       3 UNK         0.0319 
     28 CB         26.3901   23.7768    2.2166 C.3       3 UNK        -0.2001 
     29 N          28.4439   24.5131    1.0474 N.am      3 UNK        -0.4354 
     30 C          28.1676   24.5624   -0.2655 C.2       2 UNK         0.4964 
     31 O          27.1214   25.0111   -0.7330 O.2       2 UNK        -0.5047 
     32 CA         29.2333   23.9998   -1.2253 C.3       2 UNK         0.0288 
     33 CB         30.0739   25.1281   -1.8427 C.3       2 UNK        -0.2113 
     34 N          30.1142   23.0213   -0.5774 N.am      2 UNK        -0.4145 
     35 C          29.7385   21.7740   -0.2608 C.2       1 UNK         0.5006 
     36 O          28.6461   21.2928   -0.5787 O.2       1 UNK        -0.5103 
     37 C          28.2556   31.2947    4.4650 C.2       5 UNK         0.5055 
     38 O          29.0926   32.1060    4.8662 O.2       5 UNK        -0.5220 
     39 N          26.9659   31.6031    4.2672 N.am      6 UNK        -0.4450 
     40 CA         26.4241   32.9643    4.2972 C.3       6 UNK         0.0367 
     41 CB         24.8963   32.9088    4.1418 C.3       6 UNK        -0.1929 
     42 C          27.0424   33.8821    3.2225 C.2       6 UNK         0.5070 
     43 O          27.1785   35.0818    3.4630 O.2       6 UNK        -0.5237 
     44 N          27.4588   33.3107    2.0819 N.am      7 UNK        -0.4739 
     45 CA         28.1854   33.9963    1.0116 C.3       7 UNK         0.0276 
     46 CB         27.8533   33.3252   -0.3350 C.3       7 UNK        -0.1927 
     47 C          29.6983   34.0235    1.3059 C.2       7 UNK         0.5013 
     48 O          30.4925   33.5381    0.4994 O.2       7 UNK        -0.5193 
     49 N          30.0594   34.5920    2.4655 N.am      8 UNK        -0.4253 
     50 CA         31.4199   34.8280    2.9640 C.3       8 UNK         0.0242 
     51 CB         32.1107   35.9268    2.1271 C.3       8 UNK        -0.2000 
     52 C          32.2697   33.5461    3.0871 C.2       8 UNK         0.4948 
     53 O          33.3849   33.4964    2.5642 O.2       8 UNK        -0.5275 
     54 N          31.7310   32.5438    3.7986 N.am      9 UNK        -0.4246 
     55 CA         32.3736   31.2685    4.1463 C.3       9 UNK         0.0261 
     56 CB         33.5693   31.4936    5.0970 C.3       9 UNK        -0.1959 
     57 C          32.7302   30.3969    2.9257 C.2       9 UNK         0.5033 
     58 O          33.8106   29.8023    2.8849 O.2       9 UNK        -0.5390 
     59 N          31.8085   30.3176    1.9556 N.am      10 UNK        -0.4215 
     60 CA         31.8899   29.4556    0.7748 C.3       10 UNK         0.0240 
     61 CB         30.8455   29.9134   -0.2593 C.3       10 UNK        -0.1982 
     62 C          31.7479   27.9596    1.1277 C.2       10 UNK         0.4970 
     63 O          30.7012   27.3594    0.8802 O.2       10 UNK        -0.4916 
     64 N          32.8184   27.3941    1.6968 N.am      11 UNK        -0.4279 
     65 CA         33.0146   25.9574    1.9403 C.3       11 UNK         0.1003 
     66 C          33.0450   25.1262    0.6236 C.2       11 UNK         0.5709 
     67 N          33.6468   25.6296   -0.4482 N.am      11 UNK        -0.7358 
     68 O          32.4865   24.0342    0.5588 O.2       11 UNK        -0.4999 
     69 C69        34.2849   25.7467    2.8115 C.3       12 UNK        -0.0954 
     70 S70        34.6606   24.0171    3.2702 S.3       12 UNK        -0.2268 
     71 C71        34.1508   23.9542    5.0161 C.3       12 UNK         0.0203 
     72 H72        31.1306   16.6171   -0.5669 H         1 UNK         0.0888 
     73 H73        29.7653   17.0598    0.4598 H         1 UNK         0.0888 
     74 H74        29.5860   17.0670   -1.2957 H         1 UNK         0.0888 
     75 H75        29.9128   19.1437    1.2761 H         1 UNK         0.3017 
     76 H76        31.7261   21.1118    0.1492 H         1 UNK         0.0873 
     77 H77        31.5775   20.8707    2.5764 H         1 UNK         0.0745 
     78 H78        31.1050   22.4735    2.1071 H         1 UNK         0.0745 
     79 H79        28.9715   21.2768    5.3893 H         1 UNK         0.0705 
     80 H80        30.4728   20.5142    4.9322 H         1 UNK         0.0705 
     81 H81        32.5090   21.8189    4.6870 H         1 UNK         0.1334 
     82 H82        32.4486   25.9968    5.6193 H         1 UNK         0.1417 
     83 H83        28.7654   23.8110    5.3240 H         1 UNK         0.1562 
     84 H84        29.9082   26.6070    6.8452 H         1 UNK         0.0748 
     85 H85        28.6737   26.1653    5.6795 H         1 UNK         0.0748 
     86 H86        29.8195   29.6748    5.9718 H         1 UNK         0.0940 
     87 H87        28.3789   28.6892    5.8778 H         1 UNK         0.0940 
     88 H88        29.5883   30.0566    3.4362 H         1 UNK         0.0703 
     89 H89        27.4690   28.2213    3.6221 H         1 UNK         0.3081 
     90 H90        25.5481   28.4097    1.7647 H         1 UNK         0.0719 
     91 H91        25.8444   29.7724   -0.2923 H         1 UNK         0.0809 
     92 H92        25.6280   28.0800   -0.7046 H         1 UNK         0.0809 
     93 H93        27.2355   28.8040   -0.7617 H         1 UNK         0.0809 
     94 H94        27.3305   26.6226    0.4355 H         1 UNK         0.2990 
     95 H95        28.1826   24.5669    3.0740 H         1 UNK         0.0690 
     96 H96        26.7393   22.7459    2.1623 H         1 UNK         0.0788 
     97 H97        25.7073   23.9419    1.3825 H         1 UNK         0.0788 
     98 H98        25.8098   23.8736    3.1351 H         1 UNK         0.0788 
     99 H99        29.3649   24.1815    1.2955 H         1 UNK         0.2993 
    100 H100       28.7010   23.4975   -2.0362 H         1 UNK         0.0949 
    101 H101       30.7758   24.7408   -2.5812 H         1 UNK         0.0767 
    102 H102       29.4389   25.8569   -2.3484 H         1 UNK         0.0767 
    103 H103       30.6459   25.6652   -1.0880 H         1 UNK         0.0767 
    104 H104       31.0232   23.3579   -0.2607 H         1 UNK         0.3013 
    105 H105       26.3500   30.8750    3.9367 H         1 UNK         0.3121 
    106 H106       26.6570   33.3959    5.2730 H         1 UNK         0.0774 
    107 H107       24.6022   32.4696    3.1875 H         1 UNK         0.0815 
    108 H108       24.4644   33.9097    4.1861 H         1 UNK         0.0815 
    109 H109       24.4361   32.3243    4.9386 H         1 UNK         0.0815 
    110 H110       27.3772   32.3025    1.9734 H         1 UNK         0.2987 
    111 H111       27.8488   35.0339    0.9527 H         1 UNK         0.0949 
    112 H112       28.2116   32.2961   -0.3758 H         1 UNK         0.0806 
    113 H113       26.7791   33.3133   -0.5192 H         1 UNK         0.0806 
    114 H114       28.3183   33.8626   -1.1623 H         1 UNK         0.0806 
    115 H115       29.3076   34.9255    3.0590 H         1 UNK         0.3010 
    116 H116       31.3102   35.2136    3.9788 H         1 UNK         0.0829 
    117 H117       32.2754   35.6075    1.0974 H         1 UNK         0.0813 
    118 H118       31.5171   36.8407    2.1039 H         1 UNK         0.0813 
    119 H119       33.0838   36.1849    2.5470 H         1 UNK         0.0813 
    120 H120       30.7920   32.6650    4.1733 H         1 UNK         0.3038 
    121 H121       31.6318   30.7009    4.7069 H         1 UNK         0.0769 
    122 H122       33.9602   30.5436    5.4636 H         1 UNK         0.0811 
    123 H123       34.3907   32.0115    4.6011 H         1 UNK         0.0811 
    124 H124       33.2788   32.0801    5.9685 H         1 UNK         0.0811 
    125 H125       30.9721   30.8757    2.0407 H         1 UNK         0.3204 
    126 H126       32.8748   29.5939    0.3237 H         1 UNK         0.0748 
    127 H127       30.9150   29.3193   -1.1714 H         1 UNK         0.0771 
    128 H128       29.8288   29.8084    0.1165 H         1 UNK         0.0771 
    129 H129       30.9923   30.9567   -0.5399 H         1 UNK         0.0771 
    130 H130       33.5816   28.0081    1.9597 H         1 UNK         0.2980 
    131 H131       32.1535   25.6108    2.5150 H         1 UNK         0.0545 
    132 H132       33.6592   25.0950   -1.3016 H         1 UNK         0.3459 
    133 H133       34.1028   26.5265   -0.4094 H         1 UNK         0.3459 
    134 H134       35.1594   26.1365    2.2875 H         1 UNK         0.0616 
    135 H135       34.2039   26.3402    3.7234 H         1 UNK         0.0616 
    136 H136       34.5782   23.0612    5.4745 H         1 UNK         0.0634 
    137 H137       34.5683   24.8048    5.5570 H         1 UNK         0.0634 
@<TRIPOS>BOND
     1    1    2 1    
     2    1   72 1    
     3    1   73 1    
     4    1   74 1    
     5    2    3 2    
     6    2    4 am   BACKBONE|DICT|INTERRES
     7    4    5 1    
     8    4   75 1    
     9    5    6 1    
    10    5   35 1    
    11    5   76 1    
    12    6    7 1    
    13    6   77 1    
    14    6   78 1    
    15    7    8 1    
    16    8    9 1    
    17    8   79 1    
    18    8   80 1    
    19    9   10 ar   
    20    9   14 ar   
    21   10   11 ar   
    22   10   81 1    
    23   11   12 ar   
    24   11   71 1    
    25   12   13 ar   
    26   12   82 1    
    27   13   14 ar   
    28   13   15 1    
    29   14   83 1    
    30   15   16 1    
    31   15   84 1    
    32   15   85 1    
    33   16   17 1    
    34   17   18 1    
    35   17   86 1    
    36   17   87 1    
    37   18   19 1    
    38   18   37 1    
    39   18   88 1    
    40   19   20 am   BACKBONE|DICT|INTERRES
    41   19   89 1    
    42   20   21 2    
    43   20   22 1    
    44   22   23 1    
    45   22   24 1    
    46   22   90 1    
    47   23   91 1    
    48   23   92 1    
    49   23   93 1    
    50   24   25 am   BACKBONE|DICT|INTERRES
    51   24   94 1    
    52   25   26 2    
    53   25   27 1    
    54   27   28 1    
    55   27   29 1    
    56   27   95 1    
    57   28   96 1    
    58   28   97 1    
    59   28   98 1    
    60   29   30 am   BACKBONE|DICT|INTERRES
    61   29   99 1    
    62   30   31 2    
    63   30   32 1    
    64   32   33 1    
    65   32   34 1    
    66   32  100 1    
    67   33  101 1    
    68   33  102 1    
    69   33  103 1    
    70   34   35 am   BACKBONE|DICT|INTERRES
    71   34  104 1    
    72   35   36 2    
    73   37   38 2    
    74   37   39 am   BACKBONE|DICT|INTERRES
    75   39   40 1    
    76   39  105 1    
    77   40   41 1    
    78   40   42 1    
    79   40  106 1    
    80   41  107 1    
    81   41  108 1    
    82   41  109 1    
    83   42   43 2    
    84   42   44 am   BACKBONE|DICT|INTERRES
    85   44   45 1    
    86   44  110 1    
    87   45   46 1    
    88   45   47 1    
    89   45  111 1    
    90   46  112 1    
    91   46  113 1    
    92   46  114 1    
    93   47   48 2    
    94   47   49 am   BACKBONE|DICT|INTERRES
    95   49   50 1    
    96   49  115 1    
    97   50   51 1    
    98   50   52 1    
    99   50  116 1    
   100   51  117 1    
   101   51  118 1    
   102   51  119 1    
   103   52   53 2    
   104   52   54 am   BACKBONE|DICT|INTERRES
   105   54   55 1    
   106   54  120 1    
   107   55   56 1    
   108   55   57 1    
   109   55  121 1    
   110   56  122 1    
   111   56  123 1    
   112   56  124 1    
   113   57   58 2    
   114   57   59 am   BACKBONE|DICT|INTERRES
   115   59   60 1    
   116   59  125 1    
   117   60   61 1    
   118   60   62 1    
   119   60  126 1    
   120   61  127 1    
   121   61  128 1    
   122   61  129 1    
   123   62   63 2    
   124   62   64 am   BACKBONE|DICT|INTERRES
   125   64   65 1    
   126   64  130 1    
   127   65   66 1    
   128   65   69 1    
   129   65  131 1    
   130   66   67 am   BACKBONE|DICT|INTERRES
   131   66   68 2    
   132   67  132 1    
   133   67  133 1    
   134   69   70 1    
   135   69  134 1    
   136   69  135 1    
   137   70   71 1    
   138   71  136 1    
   139   71  137 1    
@<TRIPOS>SUBSTRUCTURE
     1 UNK         1 GROUP             0       ****    0 ROOT    
