@<TRIPOS>MOLECULE
3R136
137   139    1
SMALL
USER_CHARGES


@<TRIPOS>ATOM
      1 CA         31.1428   20.0413   -2.1702 C.3       0 UNK        -0.1979 
      2 C          30.8457   21.2090   -1.2406 C.2       0 UNK         0.4864 
      3 O          31.1479   21.1287   -0.0492 O.2       0 UNK        -0.5359 
      4 N          30.2617   22.2882   -1.7814 N.am      1 UNK        -0.4318 
      5 CA         29.8452   23.5002   -1.0669 C.3       1 UNK         0.0824 
      6 C6         31.0445   24.2931   -0.4752 C.3       12 UNK        -0.0944 
      7 S7         30.6424   26.0463   -0.1629 S.3       12 UNK        -0.2672 
      8 C8         31.9031   26.4966    1.0675 C.3       12 UNK         0.0333 
      9 C9         31.6399   25.8572    2.4228 C.ar      12 UNK        -0.0807 
     10 C10        32.3772   24.7472    2.8359 C.ar      12 UNK        -0.0894 
     11 C11        32.1656   24.1838    4.0960 C.ar      12 UNK        -0.0804 
     12 C12        31.2045   24.7389    4.9467 C.ar      12 UNK        -0.0824 
     13 C13        30.4593   25.8568    4.5531 C.ar      12 UNK        -0.0762 
     14 C14        30.6822   26.4011    3.2801 C.ar      12 UNK        -0.0782 
     15 C15        29.4436   26.4392    5.5412 C.3       12 UNK         0.0230 
     16 S16        28.8891   28.1520    5.2098 S.3       12 UNK        -0.2608 
     17 C17        27.6133   27.8825    3.9361 C.3       12 UNK        -0.0989 
     18 CA         27.7553   28.8346    2.7236 C.3       5 UNK         0.0716 
     19 N          27.1704   28.2458    1.5154 N.am      5 UNK        -0.4135 
     20 C          27.2397   28.7900    0.2925 C.2       4 UNK         0.5031 
     21 O          27.8087   29.8585    0.0686 O.2       4 UNK        -0.5229 
     22 CA         26.6029   28.0286   -0.8855 C.3       4 UNK         0.0329 
     23 CB         27.5879   27.9216   -2.0639 C.3       4 UNK        -0.2001 
     24 N          26.1548   26.6809   -0.5245 N.am      4 UNK        -0.4303 
     25 C          24.9113   26.3501   -0.1490 C.2       3 UNK         0.5044 
     26 O          23.9825   27.1533   -0.0646 O.2       3 UNK        -0.5152 
     27 CA         24.6657   24.8710    0.2058 C.3       3 UNK         0.0319 
     28 CB         24.1484   24.1029   -1.0207 C.3       3 UNK        -0.2001 
     29 N          25.8595   24.1974    0.7263 N.am      3 UNK        -0.4354 
     30 C          26.4353   24.4582    1.9061 C.2       2 UNK         0.4964 
     31 O          25.9786   25.2678    2.7113 O.2       2 UNK        -0.5047 
     32 CA         27.7628   23.7462    2.2264 C.3       2 UNK         0.0288 
     33 CB         27.5270   22.3118    2.7363 C.3       2 UNK        -0.2113 
     34 N          28.7430   23.7845    1.1300 N.am      2 UNK        -0.4145 
     35 C          28.6971   23.1943   -0.0748 C.2       1 UNK         0.5006 
     36 O          27.7649   22.4767   -0.4473 O.2       1 UNK        -0.5103 
     37 C          27.1742   30.2326    3.0214 C.2       5 UNK         0.5055 
     38 O          25.9588   30.4164    2.9291 O.2       5 UNK        -0.5220 
     39 N          28.0692   31.1740    3.3487 N.am      6 UNK        -0.4450 
     40 CA         27.8690   32.6084    3.5946 C.3       6 UNK         0.0367 
     41 CB         26.6337   32.9246    4.4627 C.3       6 UNK        -0.1929 
     42 C          27.9164   33.4573    2.3131 C.2       6 UNK         0.5070 
     43 O          28.2226   34.6462    2.4102 O.2       6 UNK        -0.5237 
     44 N          27.6822   32.8514    1.1398 N.am      7 UNK        -0.4739 
     45 CA         28.0773   33.4203   -0.1518 C.3       7 UNK         0.0276 
     46 CB         27.1312   32.9413   -1.2662 C.3       7 UNK        -0.1927 
     47 C          29.5381   33.0349   -0.4321 C.2       7 UNK         0.5013 
     48 O          30.3636   33.9108   -0.6932 O.2       7 UNK        -0.5193 
     49 N          29.8347   31.7360   -0.3015 N.am      8 UNK        -0.4253 
     50 CA         31.1809   31.1836   -0.1970 C.3       8 UNK         0.0242 
     51 CB         31.1767   29.7633   -0.7835 C.3       8 UNK        -0.2000 
     52 C          31.6085   31.1536    1.2796 C.2       8 UNK         0.4948 
     53 O          30.7596   31.0031    2.1658 O.2       8 UNK        -0.5275 
     54 N          32.9209   31.2796    1.5146 N.am      9 UNK        -0.4246 
     55 CA         33.5365   31.2221    2.8423 C.3       9 UNK         0.0261 
     56 CB         35.0014   31.6788    2.7452 C.3       9 UNK        -0.1959 
     57 C          33.4491   29.8099    3.4441 C.2       9 UNK         0.5033 
     58 O          33.6848   28.8311    2.7324 O.2       9 UNK        -0.5390 
     59 N          33.1220   29.7402    4.7391 N.am      10 UNK        -0.4215 
     60 CA         32.9351   28.4959    5.4839 C.3       10 UNK         0.0240 
     61 CB         32.2208   28.8140    6.8084 C.3       10 UNK        -0.1982 
     62 C          34.2511   27.7528    5.7608 C.2       10 UNK         0.4970 
     63 O          35.3031   28.3865    5.8794 O.2       10 UNK        -0.4916 
     64 N          34.1440   26.4288    5.9289 N.am      11 UNK        -0.4279 
     65 CA         35.2002   25.5575    6.4649 C.3       11 UNK         0.1003 
     66 C          35.6178   25.9580    7.9085 C.2       11 UNK         0.5709 
     67 N          36.8996   25.8613    8.2343 N.am      11 UNK        -0.7358 
     68 O          34.7858   26.3104    8.7431 O.2       11 UNK        -0.4999 
     69 C69        34.7715   24.0666    6.4325 C.3       12 UNK        -0.0954 
     70 S70        34.7364   23.3733    4.7474 S.3       12 UNK        -0.2268 
     71 C71        32.9752   22.9683    4.5194 C.3       12 UNK         0.0203 
     72 H72        30.8367   20.2471   -3.1958 H         1 UNK         0.0888 
     73 H73        32.2110   19.8260   -2.1724 H         1 UNK         0.0888 
     74 H74        30.6158   19.1496   -1.8318 H         1 UNK         0.0888 
     75 H75        30.0158   22.2671   -2.7614 H         1 UNK         0.3017 
     76 H76        29.3926   24.1283   -1.8360 H         1 UNK         0.0873 
     77 H77        31.8761   24.2834   -1.1816 H         1 UNK         0.0745 
     78 H78        31.4215   23.8106    0.4267 H         1 UNK         0.0745 
     79 H79        31.9075   27.5812    1.1798 H         1 UNK         0.0705 
     80 H80        32.8923   26.2270    0.6944 H         1 UNK         0.0705 
     81 H81        33.1271   24.3239    2.1813 H         1 UNK         0.1334 
     82 H82        31.0384   24.3013    5.9221 H         1 UNK         0.1417 
     83 H83        30.1378   27.2678    2.9463 H         1 UNK         0.1562 
     84 H84        29.8867   26.4351    6.5383 H         1 UNK         0.0748 
     85 H85        28.5756   25.7804    5.5937 H         1 UNK         0.0748 
     86 H86        26.6213   27.9471    4.3883 H         1 UNK         0.0940 
     87 H87        27.7154   26.8524    3.5993 H         1 UNK         0.0940 
     88 H88        28.8155   28.9629    2.4979 H         1 UNK         0.0703 
     89 H89        26.6368   27.3975    1.6388 H         1 UNK         0.3081 
     90 H90        25.7486   28.6219   -1.2180 H         1 UNK         0.0719 
     91 H91        27.1348   27.4133   -2.9150 H         1 UNK         0.0809 
     92 H92        27.8980   28.9091   -2.4090 H         1 UNK         0.0809 
     93 H93        28.4912   27.3771   -1.7888 H         1 UNK         0.0809 
     94 H94        26.8504   25.9507   -0.5584 H         1 UNK         0.2990 
     95 H95        23.8955   24.8408    0.9795 H         1 UNK         0.0690 
     96 H96        23.2461   24.5677   -1.4209 H         1 UNK         0.0788 
     97 H97        23.8951   23.0736   -0.7655 H         1 UNK         0.0788 
     98 H98        24.8869   24.0775   -1.8231 H         1 UNK         0.0788 
     99 H99        26.3073   23.5028    0.1325 H         1 UNK         0.2993 
    100 H100       28.2224   24.3049    3.0437 H         1 UNK         0.0949 
    101 H101       28.4654   21.8369    3.0232 H         1 UNK         0.0767 
    102 H102       26.8823   22.3144    3.6161 H         1 UNK         0.0767 
    103 H103       27.0480   21.6815    1.9867 H         1 UNK         0.0767 
    104 H104       29.5385   24.3889    1.2963 H         1 UNK         0.3013 
    105 H105       29.0505   30.9137    3.2793 H         1 UNK         0.3121 
    106 H106       28.7438   32.9066    4.1746 H         1 UNK         0.0774 
    107 H107       25.7011   32.7754    3.9184 H         1 UNK         0.0815 
    108 H108       26.6487   33.9663    4.7854 H         1 UNK         0.0815 
    109 H109       26.6069   32.3068    5.3602 H         1 UNK         0.0815 
    110 H110       27.4472   31.8668    1.1458 H         1 UNK         0.2987 
    111 H111       28.0162   34.5103   -0.1115 H         1 UNK         0.0949 
    112 H112       27.1585   31.8608   -1.4021 H         1 UNK         0.0806 
    113 H113       26.0999   33.2243   -1.0557 H         1 UNK         0.0806 
    114 H114       27.4021   33.3928   -2.2213 H         1 UNK         0.0806 
    115 H115       29.0794   31.0861   -0.0859 H         1 UNK         0.3010 
    116 H116       31.8791   31.8017   -0.7655 H         1 UNK         0.0829 
    117 H117       30.8729   29.7668   -1.8303 H         1 UNK         0.0813 
    118 H118       32.1684   29.3122   -0.7334 H         1 UNK         0.0813 
    119 H119       30.4915   29.1099   -0.2421 H         1 UNK         0.0813 
    120 H120       33.5523   31.3517    0.7302 H         1 UNK         0.3038 
    121 H121       32.9992   31.9189    3.4896 H         1 UNK         0.0769 
    122 H122       35.5844   31.0269    2.0931 H         1 UNK         0.0811 
    123 H123       35.4790   31.6675    3.7260 H         1 UNK         0.0811 
    124 H124       35.0771   32.6960    2.3605 H         1 UNK         0.0811 
    125 H125       32.9937   30.5971    5.2568 H         1 UNK         0.3204 
    126 H126       32.2944   27.8506    4.8863 H         1 UNK         0.0748 
    127 H127       32.8340   29.4417    7.4565 H         1 UNK         0.0771 
    128 H128       31.2758   29.3300    6.6392 H         1 UNK         0.0771 
    129 H129       31.9945   27.9008    7.3606 H         1 UNK         0.0771 
    130 H130       33.2455   25.9910    5.7923 H         1 UNK         0.2980 
    131 H131       36.0739   25.6810    5.8218 H         1 UNK         0.0545 
    132 H132       37.1862   26.1011    9.1706 H         1 UNK         0.3459 
    133 H133       37.5877   25.5596    7.5619 H         1 UNK         0.3459 
    134 H134       35.4761   23.4527    6.9972 H         1 UNK         0.0616 
    135 H135       33.8036   23.9326    6.9187 H         1 UNK         0.0616 
    136 H136       32.5749   22.5186    5.4293 H         1 UNK         0.0634 
    137 H137       32.8929   22.2060    3.7433 H         1 UNK         0.0634 
@<TRIPOS>BOND
     1    1    2 1    
     2    1   72 1    
     3    1   73 1    
     4    1   74 1    
     5    2    3 2    
     6    2    4 am   BACKBONE|DICT|INTERRES
     7    4    5 1    
     8    4   75 1    
     9    5    6 1    
    10    5   35 1    
    11    5   76 1    
    12    6    7 1    
    13    6   77 1    
    14    6   78 1    
    15    7    8 1    
    16    8    9 1    
    17    8   79 1    
    18    8   80 1    
    19    9   10 ar   
    20    9   14 ar   
    21   10   11 ar   
    22   10   81 1    
    23   11   12 ar   
    24   11   71 1    
    25   12   13 ar   
    26   12   82 1    
    27   13   14 ar   
    28   13   15 1    
    29   14   83 1    
    30   15   16 1    
    31   15   84 1    
    32   15   85 1    
    33   16   17 1    
    34   17   18 1    
    35   17   86 1    
    36   17   87 1    
    37   18   19 1    
    38   18   37 1    
    39   18   88 1    
    40   19   20 am   BACKBONE|DICT|INTERRES
    41   19   89 1    
    42   20   21 2    
    43   20   22 1    
    44   22   23 1    
    45   22   24 1    
    46   22   90 1    
    47   23   91 1    
    48   23   92 1    
    49   23   93 1    
    50   24   25 am   BACKBONE|DICT|INTERRES
    51   24   94 1    
    52   25   26 2    
    53   25   27 1    
    54   27   28 1    
    55   27   29 1    
    56   27   95 1    
    57   28   96 1    
    58   28   97 1    
    59   28   98 1    
    60   29   30 am   BACKBONE|DICT|INTERRES
    61   29   99 1    
    62   30   31 2    
    63   30   32 1    
    64   32   33 1    
    65   32   34 1    
    66   32  100 1    
    67   33  101 1    
    68   33  102 1    
    69   33  103 1    
    70   34   35 am   BACKBONE|DICT|INTERRES
    71   34  104 1    
    72   35   36 2    
    73   37   38 2    
    74   37   39 am   BACKBONE|DICT|INTERRES
    75   39   40 1    
    76   39  105 1    
    77   40   41 1    
    78   40   42 1    
    79   40  106 1    
    80   41  107 1    
    81   41  108 1    
    82   41  109 1    
    83   42   43 2    
    84   42   44 am   BACKBONE|DICT|INTERRES
    85   44   45 1    
    86   44  110 1    
    87   45   46 1    
    88   45   47 1    
    89   45  111 1    
    90   46  112 1    
    91   46  113 1    
    92   46  114 1    
    93   47   48 2    
    94   47   49 am   BACKBONE|DICT|INTERRES
    95   49   50 1    
    96   49  115 1    
    97   50   51 1    
    98   50   52 1    
    99   50  116 1    
   100   51  117 1    
   101   51  118 1    
   102   51  119 1    
   103   52   53 2    
   104   52   54 am   BACKBONE|DICT|INTERRES
   105   54   55 1    
   106   54  120 1    
   107   55   56 1    
   108   55   57 1    
   109   55  121 1    
   110   56  122 1    
   111   56  123 1    
   112   56  124 1    
   113   57   58 2    
   114   57   59 am   BACKBONE|DICT|INTERRES
   115   59   60 1    
   116   59  125 1    
   117   60   61 1    
   118   60   62 1    
   119   60  126 1    
   120   61  127 1    
   121   61  128 1    
   122   61  129 1    
   123   62   63 2    
   124   62   64 am   BACKBONE|DICT|INTERRES
   125   64   65 1    
   126   64  130 1    
   127   65   66 1    
   128   65   69 1    
   129   65  131 1    
   130   66   67 am   BACKBONE|DICT|INTERRES
   131   66   68 2    
   132   67  132 1    
   133   67  133 1    
   134   69   70 1    
   135   69  134 1    
   136   69  135 1    
   137   70   71 1    
   138   71  136 1    
   139   71  137 1    
@<TRIPOS>SUBSTRUCTURE
     1 UNK         1 GROUP             0       ****    0 ROOT    
