@<TRIPOS>MOLECULE
3R136
137   139    1
SMALL
USER_CHARGES


@<TRIPOS>ATOM
      1 CA         28.8294   21.9906    7.5066 C.3       0 UNK        -0.1979 
      2 C          29.1698   22.4815    6.1073 C.2       0 UNK         0.4864 
      3 O          30.3292   22.7980    5.8413 O.2       0 UNK        -0.5359 
      4 N          28.1686   22.5410    5.2187 N.am      1 UNK        -0.4318 
      5 CA         28.2565   23.0319    3.8397 C.3       1 UNK         0.0824 
      6 C6         29.1910   22.1758    2.9385 C.3       12 UNK        -0.0944 
      7 S7         28.7930   22.3447    1.1629 S.3       12 UNK        -0.2672 
      8 C8         30.3730   21.8939    0.3824 C.3       12 UNK         0.0333 
      9 C9         31.2832   23.0971    0.1691 C.ar      12 UNK        -0.0807 
     10 C10        32.1433   23.5240    1.1849 C.ar      12 UNK        -0.0894 
     11 C11        33.0325   24.5798    0.9662 C.ar      12 UNK        -0.0804 
     12 C12        33.0581   25.2135   -0.2796 C.ar      12 UNK        -0.0824 
     13 C13        32.2121   24.7920   -1.3102 C.ar      12 UNK        -0.0762 
     14 C14        31.3194   23.7389   -1.0742 C.ar      12 UNK        -0.0782 
     15 C15        32.3497   25.4059   -2.7008 C.3       12 UNK         0.0230 
     16 S16        30.7653   25.8895   -3.4560 S.3       12 UNK        -0.2608 
     17 C17        30.4733   27.5191   -2.6935 C.3       12 UNK        -0.0989 
     18 CA         28.9916   27.9444   -2.8454 C.3       5 UNK         0.0716 
     19 N          28.0977   27.0713   -2.0873 N.am      5 UNK        -0.4135 
     20 C          27.0821   26.3593   -2.5920 C.2       4 UNK         0.5031 
     21 O          26.7553   26.3667   -3.7799 O.2       4 UNK        -0.5229 
     22 CA         26.2916   25.4725   -1.6080 C.3       4 UNK         0.0329 
     23 CB         26.8201   24.0295   -1.6571 C.3       4 UNK        -0.2001 
     24 N          26.3419   25.9505   -0.2240 N.am      4 UNK        -0.4303 
     25 C          25.8101   27.1033    0.2058 C.2       3 UNK         0.5044 
     26 O          25.0998   27.8284   -0.4908 O.2       3 UNK        -0.5152 
     27 CA         26.1525   27.5518    1.6383 C.3       3 UNK         0.0319 
     28 CB         24.9773   27.2710    2.5874 C.3       3 UNK        -0.2001 
     29 N          27.3745   26.9780    2.2151 N.am      3 UNK        -0.4354 
     30 C          28.6134   27.0177    1.7047 C.2       2 UNK         0.4964 
     31 O          28.8863   27.4824    0.5999 O.2       2 UNK        -0.5047 
     32 CA         29.7331   26.3945    2.5463 C.3       2 UNK         0.0288 
     33 CB         30.0985   27.3019    3.7365 C.3       2 UNK        -0.2113 
     34 N          29.4381   25.0115    2.9470 N.am      2 UNK        -0.4145 
     35 C          28.5098   24.5567    3.8031 C.2       1 UNK         0.5006 
     36 O          27.8014   25.2920    4.4956 O.2       1 UNK        -0.5103 
     37 C          28.7703   29.4036   -2.4109 C.2       5 UNK         0.5055 
     38 O          28.4356   30.2385   -3.2530 O.2       5 UNK        -0.5220 
     39 N          28.9356   29.6828   -1.1121 N.am      6 UNK        -0.4450 
     40 CA         28.7509   30.9822   -0.4728 C.3       6 UNK         0.0367 
     41 CB         29.8206   31.9949   -0.9320 C.3       6 UNK        -0.1929 
     42 C          28.8377   30.7597    1.0386 C.2       6 UNK         0.5070 
     43 O          29.9112   30.4140    1.5339 O.2       6 UNK        -0.5237 
     44 N          27.7227   30.9610    1.7547 N.am      7 UNK        -0.4739 
     45 CA         27.6156   30.7399    3.2057 C.3       7 UNK         0.0276 
     46 CB         26.1651   30.9750    3.6568 C.3       7 UNK        -0.1927 
     47 C          28.5815   31.6017    4.0373 C.2       7 UNK         0.5013 
     48 O          29.0630   31.1478    5.0760 O.2       7 UNK        -0.5193 
     49 N          28.8899   32.8020    3.5256 N.am      8 UNK        -0.4253 
     50 CA         29.8481   33.7603    4.0811 C.3       8 UNK         0.0242 
     51 CB         29.7991   35.0519    3.2479 C.3       8 UNK        -0.2000 
     52 C          31.2957   33.2411    4.1815 C.2       8 UNK         0.4948 
     53 O          32.0762   33.8219    4.9370 O.2       8 UNK        -0.5275 
     54 N          31.6371   32.1680    3.4486 N.am      9 UNK        -0.4246 
     55 CA         32.9283   31.4841    3.5546 C.3       9 UNK         0.0261 
     56 CB         33.0839   30.4899    2.3918 C.3       9 UNK        -0.1959 
     57 C          33.1168   30.7624    4.9015 C.2       9 UNK         0.5033 
     58 O          34.2560   30.6401    5.3527 O.2       9 UNK        -0.5390 
     59 N          32.0102   30.2903    5.5047 N.am      10 UNK        -0.4215 
     60 CA         31.9223   29.5793    6.7915 C.3       10 UNK         0.0240 
     61 CB         32.2223   30.5485    7.9542 C.3       10 UNK        -0.1982 
     62 C          32.7616   28.2834    6.8795 C.2       10 UNK         0.4970 
     63 O          33.0675   27.8264    7.9819 O.2       10 UNK        -0.4916 
     64 N          33.1176   27.7164    5.7224 N.am      11 UNK        -0.4279 
     65 CA         33.9829   26.5411    5.5607 C.3       11 UNK         0.1003 
     66 C          33.2918   25.1637    5.7906 C.2       11 UNK         0.5709 
     67 N          31.9945   25.1092    6.0622 N.am      11 UNK        -0.7358 
     68 O          33.9503   24.1286    5.7214 O.2       11 UNK        -0.4999 
     69 C69        34.7345   26.6162    4.2045 C.3       12 UNK        -0.0954 
     70 S70        33.6230   26.6163    2.7530 S.3       12 UNK        -0.2268 
     71 C71        34.0142   24.9863    2.0537 C.3       12 UNK         0.0203 
     72 H72        29.4162   21.1041    7.7454 H         1 UNK         0.0888 
     73 H73        29.0627   22.7618    8.2404 H         1 UNK         0.0888 
     74 H74        27.7743   21.7360    7.6055 H         1 UNK         0.0888 
     75 H75        27.2367   22.2933    5.5212 H         1 UNK         0.3017 
     76 H76        27.2441   22.9113    3.4505 H         1 UNK         0.0873 
     77 H77        30.2399   22.3978    3.1333 H         1 UNK         0.0745 
     78 H78        29.0684   21.1201    3.1856 H         1 UNK         0.0745 
     79 H79        30.1577   21.4201   -0.5766 H         1 UNK         0.0705 
     80 H80        30.8807   21.1354    0.9806 H         1 UNK         0.0705 
     81 H81        32.1513   23.0120    2.1367 H         1 UNK         0.1334 
     82 H82        33.7668   26.0120   -0.4533 H         1 UNK         0.1417 
     83 H83        30.6783   23.3940   -1.8743 H         1 UNK         0.1562 
     84 H84        32.8263   24.6696   -3.3492 H         1 UNK         0.0748 
     85 H85        33.0143   26.2713   -2.6854 H         1 UNK         0.0748 
     86 H86        31.1360   28.2409   -3.1753 H         1 UNK         0.0940 
     87 H87        30.7643   27.4811   -1.6414 H         1 UNK         0.0940 
     88 H88        28.7420   27.8973   -3.9078 H         1 UNK         0.0703 
     89 H89        28.2753   27.0299   -1.0876 H         1 UNK         0.3081 
     90 H90        25.2473   25.4707   -1.9273 H         1 UNK         0.0719 
     91 H91        26.7496   23.6231   -2.6671 H         1 UNK         0.0809 
     92 H92        26.2480   23.3709   -1.0033 H         1 UNK         0.0809 
     93 H93        27.8678   23.9738   -1.3580 H         1 UNK         0.0809 
     94 H94        26.9024   25.4155    0.4226 H         1 UNK         0.2990 
     95 H95        26.3002   28.6297    1.5904 H         1 UNK         0.0690 
     96 H96        25.1569   27.6916    3.5771 H         1 UNK         0.0788 
     97 H97        24.8023   26.2007    2.7045 H         1 UNK         0.0788 
     98 H98        24.0540   27.7147    2.2117 H         1 UNK         0.0788 
     99 H99        27.2794   26.5344    3.1252 H         1 UNK         0.2993 
    100 H100       30.6117   26.3338    1.9010 H         1 UNK         0.0949 
    101 H101       30.9270   26.8803    4.2976 H         1 UNK         0.0767 
    102 H102       30.4087   28.2880    3.3880 H         1 UNK         0.0767 
    103 H103       29.2658   27.4506    4.4240 H         1 UNK         0.0767 
    104 H104       29.9150   24.3101    2.3955 H         1 UNK         0.3013 
    105 H105       29.1548   28.9257   -0.4640 H         1 UNK         0.3121 
    106 H106       27.7607   31.3636   -0.7296 H         1 UNK         0.0774 
    107 H107       30.8301   31.6172   -0.7640 H         1 UNK         0.0815 
    108 H108       29.7289   32.9341   -0.3850 H         1 UNK         0.0815 
    109 H109       29.7249   32.2318   -1.9912 H         1 UNK         0.0815 
    110 H110       26.8815   31.2539    1.2774 H         1 UNK         0.2987 
    111 H111       27.8713   29.6961    3.4000 H         1 UNK         0.0949 
    112 H112       25.8479   32.0032    3.4787 H         1 UNK         0.0806 
    113 H113       25.4695   30.3160    3.1380 H         1 UNK         0.0806 
    114 H114       26.0539   30.7807    4.7247 H         1 UNK         0.0806 
    115 H115       28.4436   33.0637    2.6588 H         1 UNK         0.3010 
    116 H116       29.5228   33.9933    5.0972 H         1 UNK         0.0829 
    117 H117       28.7998   35.4878    3.2468 H         1 UNK         0.0813 
    118 H118       30.4767   35.8049    3.6532 H         1 UNK         0.0813 
    119 H119       30.0916   34.8751    2.2120 H         1 UNK         0.0813 
    120 H120       30.9474   31.7417    2.8382 H         1 UNK         0.3038 
    121 H121       33.7159   32.2357    3.4679 H         1 UNK         0.0769 
    122 H122       32.3383   29.6951    2.4337 H         1 UNK         0.0811 
    123 H123       34.0650   30.0134    2.4144 H         1 UNK         0.0811 
    124 H124       32.9862   30.9870    1.4265 H         1 UNK         0.0811 
    125 H125       31.1157   30.4879    5.0680 H         1 UNK         0.3204 
    126 H126       30.8816   29.2653    6.8860 H         1 UNK         0.0748 
    127 H127       31.6005   31.4420    7.8939 H         1 UNK         0.0771 
    128 H128       32.0223   30.0822    8.9197 H         1 UNK         0.0771 
    129 H129       33.2656   30.8659    7.9548 H         1 UNK         0.0771 
    130 H130       32.8210   28.1515    4.8626 H         1 UNK         0.2980 
    131 H131       34.7459   26.6016    6.3388 H         1 UNK         0.0545 
    132 H132       31.5353   24.2049    6.1344 H         1 UNK         0.3459 
    133 H133       31.4548   25.9528    6.1445 H         1 UNK         0.3459 
    134 H134       35.3226   27.5346    4.1668 H         1 UNK         0.0616 
    135 H135       35.4615   25.8063    4.1224 H         1 UNK         0.0616 
    136 H136       35.0251   25.0056    1.6441 H         1 UNK         0.0634 
    137 H137       34.0195   24.2446    2.8539 H         1 UNK         0.0634 
@<TRIPOS>BOND
     1    1    2 1    
     2    1   72 1    
     3    1   73 1    
     4    1   74 1    
     5    2    3 2    
     6    2    4 am   BACKBONE|DICT|INTERRES
     7    4    5 1    
     8    4   75 1    
     9    5    6 1    
    10    5   35 1    
    11    5   76 1    
    12    6    7 1    
    13    6   77 1    
    14    6   78 1    
    15    7    8 1    
    16    8    9 1    
    17    8   79 1    
    18    8   80 1    
    19    9   10 ar   
    20    9   14 ar   
    21   10   11 ar   
    22   10   81 1    
    23   11   12 ar   
    24   11   71 1    
    25   12   13 ar   
    26   12   82 1    
    27   13   14 ar   
    28   13   15 1    
    29   14   83 1    
    30   15   16 1    
    31   15   84 1    
    32   15   85 1    
    33   16   17 1    
    34   17   18 1    
    35   17   86 1    
    36   17   87 1    
    37   18   19 1    
    38   18   37 1    
    39   18   88 1    
    40   19   20 am   BACKBONE|DICT|INTERRES
    41   19   89 1    
    42   20   21 2    
    43   20   22 1    
    44   22   23 1    
    45   22   24 1    
    46   22   90 1    
    47   23   91 1    
    48   23   92 1    
    49   23   93 1    
    50   24   25 am   BACKBONE|DICT|INTERRES
    51   24   94 1    
    52   25   26 2    
    53   25   27 1    
    54   27   28 1    
    55   27   29 1    
    56   27   95 1    
    57   28   96 1    
    58   28   97 1    
    59   28   98 1    
    60   29   30 am   BACKBONE|DICT|INTERRES
    61   29   99 1    
    62   30   31 2    
    63   30   32 1    
    64   32   33 1    
    65   32   34 1    
    66   32  100 1    
    67   33  101 1    
    68   33  102 1    
    69   33  103 1    
    70   34   35 am   BACKBONE|DICT|INTERRES
    71   34  104 1    
    72   35   36 2    
    73   37   38 2    
    74   37   39 am   BACKBONE|DICT|INTERRES
    75   39   40 1    
    76   39  105 1    
    77   40   41 1    
    78   40   42 1    
    79   40  106 1    
    80   41  107 1    
    81   41  108 1    
    82   41  109 1    
    83   42   43 2    
    84   42   44 am   BACKBONE|DICT|INTERRES
    85   44   45 1    
    86   44  110 1    
    87   45   46 1    
    88   45   47 1    
    89   45  111 1    
    90   46  112 1    
    91   46  113 1    
    92   46  114 1    
    93   47   48 2    
    94   47   49 am   BACKBONE|DICT|INTERRES
    95   49   50 1    
    96   49  115 1    
    97   50   51 1    
    98   50   52 1    
    99   50  116 1    
   100   51  117 1    
   101   51  118 1    
   102   51  119 1    
   103   52   53 2    
   104   52   54 am   BACKBONE|DICT|INTERRES
   105   54   55 1    
   106   54  120 1    
   107   55   56 1    
   108   55   57 1    
   109   55  121 1    
   110   56  122 1    
   111   56  123 1    
   112   56  124 1    
   113   57   58 2    
   114   57   59 am   BACKBONE|DICT|INTERRES
   115   59   60 1    
   116   59  125 1    
   117   60   61 1    
   118   60   62 1    
   119   60  126 1    
   120   61  127 1    
   121   61  128 1    
   122   61  129 1    
   123   62   63 2    
   124   62   64 am   BACKBONE|DICT|INTERRES
   125   64   65 1    
   126   64  130 1    
   127   65   66 1    
   128   65   69 1    
   129   65  131 1    
   130   66   67 am   BACKBONE|DICT|INTERRES
   131   66   68 2    
   132   67  132 1    
   133   67  133 1    
   134   69   70 1    
   135   69  134 1    
   136   69  135 1    
   137   70   71 1    
   138   71  136 1    
   139   71  137 1    
@<TRIPOS>SUBSTRUCTURE
     1 UNK         1 GROUP             0       ****    0 ROOT    
