@<TRIPOS>MOLECULE
3R136
137   139    1
SMALL
USER_CHARGES


@<TRIPOS>ATOM
      1 CA         26.8547   22.3363    1.8221 C.3       0 UNK        -0.1979 
      2 C          27.6529   21.8988    0.6040 C.2       0 UNK         0.4864 
      3 O          27.9065   20.7050    0.4335 O.2       0 UNK        -0.5359 
      4 N          28.0406   22.8589   -0.2394 N.am      1 UNK        -0.4318 
      5 CA         28.7483   22.6522   -1.5017 C.3       1 UNK         0.0824 
      6 C6         30.2474   23.0546   -1.4047 C.3       12 UNK        -0.0944 
      7 S7         30.5580   24.7864   -0.8993 S.3       12 UNK        -0.2672 
      8 C8         32.2581   24.6695   -0.2539 C.3       12 UNK         0.0333 
      9 C9         32.3334   24.7750    1.2662 C.ar      12 UNK        -0.0807 
     10 C10        33.2139   25.6897    1.8518 C.ar      12 UNK        -0.0894 
     11 C11        33.3508   25.7775    3.2406 C.ar      12 UNK        -0.0804 
     12 C12        32.5728   24.9373    4.0508 C.ar      12 UNK        -0.0824 
     13 C13        31.6887   24.0140    3.4812 C.ar      12 UNK        -0.0762 
     14 C14        31.5741   23.9375    2.0895 C.ar      12 UNK        -0.0782 
     15 C15        30.9052   23.0501    4.3633 C.3       12 UNK         0.0230 
     16 S16        29.1215   23.4142    4.3971 S.3       12 UNK        -0.2608 
     17 C17        29.0416   24.8995    5.4530 C.3       12 UNK        -0.0989 
     18 CA         28.6529   26.1687    4.6566 C.3       5 UNK         0.0716 
     19 N          27.3731   26.0106    3.9467 N.am      5 UNK        -0.4135 
     20 C          26.8842   26.8691    3.0441 C.2       4 UNK         0.5031 
     21 O          27.3853   27.9701    2.8089 O.2       4 UNK        -0.5229 
     22 CA         25.5908   26.4663    2.3187 C.3       4 UNK         0.0329 
     23 CB         24.3702   27.0538    3.0448 C.3       4 UNK        -0.2001 
     24 N          25.6042   26.9455    0.9344 N.am      4 UNK        -0.4303 
     25 C          26.4488   26.4970   -0.0019 C.2       3 UNK         0.5044 
     26 O          27.2089   25.5376    0.1664 O.2       3 UNK        -0.5152 
     27 CA         26.4554   27.2528   -1.3384 C.3       3 UNK         0.0319 
     28 CB         27.0601   28.6602   -1.1834 C.3       3 UNK        -0.2001 
     29 N          27.2617   26.4855   -2.2792 N.am      3 UNK        -0.4354 
     30 C          26.9734   26.2285   -3.5595 C.2       2 UNK         0.4964 
     31 O          26.0400   26.7473   -4.1728 O.2       2 UNK        -0.5047 
     32 CA         27.8720   25.1982   -4.2748 C.3       2 UNK         0.0288 
     33 CB         28.9285   25.9096   -5.1357 C.3       2 UNK        -0.2113 
     34 N          28.5474   24.2886   -3.3415 N.am      2 UNK        -0.4145 
     35 C          27.9320   23.3490   -2.6090 C.2       1 UNK         0.5006 
     36 O          26.7472   23.0426   -2.7642 O.2       1 UNK        -0.5103 
     37 C          28.7374   27.4207    5.5597 C.2       5 UNK         0.5055 
     38 O          29.8386   27.7847    5.9607 O.2       5 UNK        -0.5220 
     39 N          27.6030   28.0655    5.8657 N.am      6 UNK        -0.4450 
     40 CA         27.5575   29.3624    6.5450 C.3       6 UNK         0.0367 
     41 CB         26.1563   29.5668    7.1435 C.3       6 UNK        -0.1929 
     42 C          27.9190   30.5407    5.6185 C.2       6 UNK         0.5070 
     43 O          28.3709   31.5733    6.1146 O.2       6 UNK        -0.5237 
     44 N          27.7031   30.3849    4.3053 N.am      7 UNK        -0.4739 
     45 CA         27.9055   31.4238    3.2923 C.3       7 UNK         0.0276 
     46 CB         26.6166   31.5550    2.4631 C.3       7 UNK        -0.1927 
     47 C          29.0933   31.1248    2.3647 C.2       7 UNK         0.5013 
     48 O          29.6812   32.0671    1.8327 O.2       7 UNK        -0.5193 
     49 N          29.4028   29.8383    2.1546 N.am      8 UNK        -0.4253 
     50 CA         30.4401   29.3553    1.2443 C.3       8 UNK         0.0242 
     51 CB         30.3750   27.8222    1.1759 C.3       8 UNK        -0.2000 
     52 C          31.8541   29.8005    1.6503 C.2       8 UNK         0.4948 
     53 O          32.2492   29.5936    2.8002 O.2       8 UNK        -0.5275 
     54 N          32.5938   30.3533    0.6767 N.am      9 UNK        -0.4246 
     55 CA         34.0069   30.7472    0.7356 C.3       9 UNK         0.0261 
     56 CB         34.8966   29.5005    0.5240 C.3       9 UNK        -0.1959 
     57 C          34.3546   31.5737    1.9926 C.2       9 UNK         0.5033 
     58 O          33.7327   32.6131    2.2200 O.2       9 UNK        -0.5390 
     59 N          35.3298   31.1030    2.7796 N.am      10 UNK        -0.4215 
     60 CA         35.7395   31.6955    4.0537 C.3       10 UNK         0.0240 
     61 CB         37.2362   31.4094    4.2680 C.3       10 UNK        -0.1982 
     62 C          34.9193   31.1846    5.2543 C.2       10 UNK         0.4970 
     63 O          35.0659   31.7416    6.3435 O.2       10 UNK        -0.4916 
     64 N          34.1071   30.1356    5.0655 N.am      11 UNK        -0.4279 
     65 CA         33.2836   29.5306    6.1228 C.3       11 UNK         0.1003 
     66 C          31.9901   30.3403    6.4063 C.2       11 UNK         0.5709 
     67 N          31.3595   30.9246    5.3950 N.am      11 UNK        -0.7358 
     68 O          31.5729   30.4572    7.5561 O.2       11 UNK        -0.4999 
     69 C69        32.9485   28.0451    5.8316 C.3       12 UNK        -0.0954 
     70 S70        34.4200   26.9964    5.6013 S.3       12 UNK        -0.2268 
     71 C71        34.3899   26.7601    3.7915 C.3       12 UNK         0.0203 
     72 H72        27.1601   21.7671    2.6996 H         1 UNK         0.0888 
     73 H73        27.0065   23.3937    2.0366 H         1 UNK         0.0888 
     74 H74        25.7914   22.1665    1.6565 H         1 UNK         0.0888 
     75 H75        27.7741   23.8262   -0.0534 H         1 UNK         0.3017 
     76 H76        28.7199   21.5929   -1.7655 H         1 UNK         0.0873 
     77 H77        30.7310   22.3962   -0.6814 H         1 UNK         0.0745 
     78 H78        30.7583   22.8653   -2.3505 H         1 UNK         0.0745 
     79 H79        32.7242   23.7361   -0.5715 H         1 UNK         0.0705 
     80 H80        32.8401   25.4674   -0.7176 H         1 UNK         0.0705 
     81 H81        33.8166   26.3280    1.2202 H         1 UNK         0.1334 
     82 H82        32.6676   24.9749    5.1262 H         1 UNK         0.1417 
     83 H83        30.8983   23.2179    1.6478 H         1 UNK         0.1562 
     84 H84        31.2956   23.0427    5.3822 H         1 UNK         0.0748 
     85 H85        31.0426   22.0366    3.9836 H         1 UNK         0.0748 
     86 H86        30.0063   25.0367    5.9462 H         1 UNK         0.0940 
     87 H87        28.3206   24.7130    6.2511 H         1 UNK         0.0940 
     88 H88        29.4146   26.3107    3.8871 H         1 UNK         0.0703 
     89 H89        26.8968   25.1338    4.0998 H         1 UNK         0.3081 
     90 H90        25.5076   25.3777    2.3070 H         1 UNK         0.0719 
     91 H91        24.4108   28.1434    3.0879 H         1 UNK         0.0809 
     92 H92        23.4408   26.7725    2.5493 H         1 UNK         0.0809 
     93 H93        24.3102   26.6887    4.0710 H         1 UNK         0.0809 
     94 H94        25.0334   27.7523    0.7298 H         1 UNK         0.2990 
     95 H95        25.4255   27.3267   -1.6940 H         1 UNK         0.0690 
     96 H96        26.4879   29.2654   -0.4794 H         1 UNK         0.0788 
     97 H97        27.0672   29.1921   -2.1349 H         1 UNK         0.0788 
     98 H98        28.0864   28.6194   -0.8180 H         1 UNK         0.0788 
     99 H99        28.0087   25.9635   -1.8388 H         1 UNK         0.2993 
    100 H100       27.2320   24.6042   -4.9309 H         1 UNK         0.0949 
    101 H101       29.5288   25.1945   -5.6986 H         1 UNK         0.0767 
    102 H102       28.4573   26.5761   -5.8597 H         1 UNK         0.0767 
    103 H103       29.6047   26.5131   -4.5285 H         1 UNK         0.0767 
    104 H104       29.5147   24.4923   -3.1266 H         1 UNK         0.3013 
    105 H105       26.7307   27.6969    5.5181 H         1 UNK         0.3121 
    106 H106       28.2805   29.3554    7.3642 H         1 UNK         0.0774 
    107 H107       26.0979   30.5142    7.6815 H         1 UNK         0.0815 
    108 H108       25.3848   29.5827    6.3726 H         1 UNK         0.0815 
    109 H109       25.9083   28.7776    7.8534 H         1 UNK         0.0815 
    110 H110       27.3940   29.4812    3.9590 H         1 UNK         0.2987 
    111 H111       28.1017   32.3877    3.7673 H         1 UNK         0.0949 
    112 H112       26.3647   30.6207    1.9590 H         1 UNK         0.0806 
    113 H113       25.7702   31.8362    3.0898 H         1 UNK         0.0806 
    114 H114       26.7208   32.3234    1.6957 H         1 UNK         0.0806 
    115 H115       28.8153   29.1276    2.5809 H         1 UNK         0.3010 
    116 H116       30.2099   29.7517    0.2534 H         1 UNK         0.0829 
    117 H117       29.3876   27.4658    0.8835 H         1 UNK         0.0813 
    118 H118       31.0866   27.4408    0.4439 H         1 UNK         0.0813 
    119 H119       30.6239   27.3664    2.1349 H         1 UNK         0.0813 
    120 H120       32.1448   30.5181   -0.2131 H         1 UNK         0.3038 
    121 H121       34.1740   31.4148   -0.1111 H         1 UNK         0.0769 
    122 H122       34.7674   28.7636    1.3155 H         1 UNK         0.0811 
    123 H123       35.9538   29.7649    0.4732 H         1 UNK         0.0811 
    124 H124       34.6541   29.0073   -0.4176 H         1 UNK         0.0811 
    125 H125       35.7913   30.2466    2.5093 H         1 UNK         0.3204 
    126 H126       35.6055   32.7784    4.0069 H         1 UNK         0.0748 
    127 H127       37.5961   31.8731    5.1877 H         1 UNK         0.0771 
    128 H128       37.4372   30.3398    4.3429 H         1 UNK         0.0771 
    129 H129       37.8377   31.8087    3.4511 H         1 UNK         0.0771 
    130 H130       33.9290   29.7988    4.1283 H         1 UNK         0.2980 
    131 H131       33.8673   29.5438    7.0457 H         1 UNK         0.0545 
    132 H132       31.6674   30.7462    4.4465 H         1 UNK         0.3459 
    133 H133       30.5021   31.4261    5.5789 H         1 UNK         0.3459 
    134 H134       32.3854   27.6209    6.6644 H         1 UNK         0.0616 
    135 H135       32.3031   27.9610    4.9555 H         1 UNK         0.0616 
    136 H136       34.2438   27.7335    3.3247 H         1 UNK         0.0634 
    137 H137       35.3785   26.4164    3.4848 H         1 UNK         0.0634 
@<TRIPOS>BOND
     1    1    2 1    
     2    1   72 1    
     3    1   73 1    
     4    1   74 1    
     5    2    3 2    
     6    2    4 am   BACKBONE|DICT|INTERRES
     7    4    5 1    
     8    4   75 1    
     9    5    6 1    
    10    5   35 1    
    11    5   76 1    
    12    6    7 1    
    13    6   77 1    
    14    6   78 1    
    15    7    8 1    
    16    8    9 1    
    17    8   79 1    
    18    8   80 1    
    19    9   10 ar   
    20    9   14 ar   
    21   10   11 ar   
    22   10   81 1    
    23   11   12 ar   
    24   11   71 1    
    25   12   13 ar   
    26   12   82 1    
    27   13   14 ar   
    28   13   15 1    
    29   14   83 1    
    30   15   16 1    
    31   15   84 1    
    32   15   85 1    
    33   16   17 1    
    34   17   18 1    
    35   17   86 1    
    36   17   87 1    
    37   18   19 1    
    38   18   37 1    
    39   18   88 1    
    40   19   20 am   BACKBONE|DICT|INTERRES
    41   19   89 1    
    42   20   21 2    
    43   20   22 1    
    44   22   23 1    
    45   22   24 1    
    46   22   90 1    
    47   23   91 1    
    48   23   92 1    
    49   23   93 1    
    50   24   25 am   BACKBONE|DICT|INTERRES
    51   24   94 1    
    52   25   26 2    
    53   25   27 1    
    54   27   28 1    
    55   27   29 1    
    56   27   95 1    
    57   28   96 1    
    58   28   97 1    
    59   28   98 1    
    60   29   30 am   BACKBONE|DICT|INTERRES
    61   29   99 1    
    62   30   31 2    
    63   30   32 1    
    64   32   33 1    
    65   32   34 1    
    66   32  100 1    
    67   33  101 1    
    68   33  102 1    
    69   33  103 1    
    70   34   35 am   BACKBONE|DICT|INTERRES
    71   34  104 1    
    72   35   36 2    
    73   37   38 2    
    74   37   39 am   BACKBONE|DICT|INTERRES
    75   39   40 1    
    76   39  105 1    
    77   40   41 1    
    78   40   42 1    
    79   40  106 1    
    80   41  107 1    
    81   41  108 1    
    82   41  109 1    
    83   42   43 2    
    84   42   44 am   BACKBONE|DICT|INTERRES
    85   44   45 1    
    86   44  110 1    
    87   45   46 1    
    88   45   47 1    
    89   45  111 1    
    90   46  112 1    
    91   46  113 1    
    92   46  114 1    
    93   47   48 2    
    94   47   49 am   BACKBONE|DICT|INTERRES
    95   49   50 1    
    96   49  115 1    
    97   50   51 1    
    98   50   52 1    
    99   50  116 1    
   100   51  117 1    
   101   51  118 1    
   102   51  119 1    
   103   52   53 2    
   104   52   54 am   BACKBONE|DICT|INTERRES
   105   54   55 1    
   106   54  120 1    
   107   55   56 1    
   108   55   57 1    
   109   55  121 1    
   110   56  122 1    
   111   56  123 1    
   112   56  124 1    
   113   57   58 2    
   114   57   59 am   BACKBONE|DICT|INTERRES
   115   59   60 1    
   116   59  125 1    
   117   60   61 1    
   118   60   62 1    
   119   60  126 1    
   120   61  127 1    
   121   61  128 1    
   122   61  129 1    
   123   62   63 2    
   124   62   64 am   BACKBONE|DICT|INTERRES
   125   64   65 1    
   126   64  130 1    
   127   65   66 1    
   128   65   69 1    
   129   65  131 1    
   130   66   67 am   BACKBONE|DICT|INTERRES
   131   66   68 2    
   132   67  132 1    
   133   67  133 1    
   134   69   70 1    
   135   69  134 1    
   136   69  135 1    
   137   70   71 1    
   138   71  136 1    
   139   71  137 1    
@<TRIPOS>SUBSTRUCTURE
     1 UNK         1 GROUP             0       ****    0 ROOT    
