@<TRIPOS>MOLECULE
3R136
137   139    1
SMALL
USER_CHARGES


@<TRIPOS>ATOM
      1 CA         26.0764   18.7112   -1.4232 C.3       0 UNK        -0.1979 
      2 C          26.9423   19.7410   -0.7127 C.2       0 UNK         0.4864 
      3 O          27.0602   19.6958    0.5118 O.2       0 UNK        -0.5359 
      4 N          27.5370   20.6732   -1.4733 N.am      1 UNK        -0.4318 
      5 CA         28.4312   21.7477   -1.0081 C.3       1 UNK         0.0824 
      6 C6         29.6937   21.2011   -0.2780 C.3       12 UNK        -0.0944 
      7 S7         31.2174   22.1307   -0.6619 S.3       12 UNK        -0.2672 
      8 C8         32.2331   21.8106    0.8179 C.3       12 UNK         0.0333 
      9 C9         32.0654   22.8907    1.8792 C.ar      12 UNK        -0.0807 
     10 C10        33.0214   23.9017    2.0170 C.ar      12 UNK        -0.0894 
     11 C11        32.8829   24.8862    3.0017 C.ar      12 UNK        -0.0804 
     12 C12        31.7628   24.8681    3.8416 C.ar      12 UNK        -0.0824 
     13 C13        30.8054   23.8533    3.7230 C.ar      12 UNK        -0.0762 
     14 C14        30.9720   22.8655    2.7473 C.ar      12 UNK        -0.0782 
     15 C15        29.6219   23.7743    4.6815 C.3       12 UNK         0.0230 
     16 S16        28.0272   23.6402    3.8039 S.3       12 UNK        -0.2608 
     17 C17        27.3080   25.3052    3.9758 C.3       12 UNK        -0.0989 
     18 CA         28.1949   26.4733    3.4800 C.3       5 UNK         0.0716 
     19 N          28.6951   26.2943    2.1090 N.am      5 UNK        -0.4135 
     20 C          29.5738   27.1168    1.5120 C.2       4 UNK         0.5031 
     21 O          30.0902   28.0817    2.0723 O.2       4 UNK        -0.5229 
     22 CA         29.8692   26.8811    0.0239 C.3       4 UNK         0.0329 
     23 CB         30.9343   25.7952   -0.1693 C.3       4 UNK        -0.2001 
     24 N          28.6524   26.5165   -0.6986 N.am      4 UNK        -0.4303 
     25 C          27.7306   27.3996   -1.1095 C.2       3 UNK         0.5044 
     26 O          27.8573   28.6192   -1.0041 O.2       3 UNK        -0.5152 
     27 CA         26.4363   26.8335   -1.7238 C.3       3 UNK         0.0319 
     28 CB         26.5603   26.7455   -3.2530 C.3       3 UNK        -0.2001 
     29 N          26.0645   25.5199   -1.1914 N.am      3 UNK        -0.4354 
     30 C          25.7163   25.2855    0.0820 C.2       2 UNK         0.4964 
     31 O          25.6136   26.1668    0.9342 O.2       2 UNK        -0.5047 
     32 CA         25.5015   23.8173    0.4881 C.3       2 UNK         0.0288 
     33 CB         24.0290   23.4175    0.3067 C.3       2 UNK        -0.2113 
     34 N          26.3584   22.8643   -0.2280 N.am      2 UNK        -0.4145 
     35 C          27.7018   22.8662   -0.2191 C.2       1 UNK         0.5006 
     36 O          28.3560   23.7435    0.3454 O.2       1 UNK        -0.5103 
     37 C          27.4389   27.8067    3.6587 C.2       5 UNK         0.5055 
     38 O          27.5955   28.4622    4.6880 O.2       5 UNK        -0.5220 
     39 N          26.6673   28.2120    2.6405 N.am      6 UNK        -0.4450 
     40 CA         25.9912   29.5109    2.5636 C.3       6 UNK         0.0367 
     41 CB         25.0406   29.5084    1.3555 C.3       6 UNK        -0.1929 
     42 C          26.9520   30.7160    2.4899 C.2       6 UNK         0.5070 
     43 O          26.5230   31.8384    2.7575 O.2       6 UNK        -0.5237 
     44 N          28.2224   30.4723    2.1441 N.am      7 UNK        -0.4739 
     45 CA         29.2930   31.4617    2.0502 C.3       7 UNK         0.0276 
     46 CB         29.9190   31.3730    0.6459 C.3       7 UNK        -0.1927 
     47 C          30.3461   31.2532    3.1536 C.2       7 UNK         0.5013 
     48 O          31.4985   31.6415    2.9564 O.2       7 UNK        -0.5193 
     49 N          29.9561   30.6643    4.2979 N.am      8 UNK        -0.4253 
     50 CA         30.8265   30.3104    5.4322 C.3       8 UNK         0.0242 
     51 CB         29.9863   29.7261    6.5788 C.3       8 UNK        -0.2000 
     52 C          31.7295   31.4373    5.9651 C.2       8 UNK         0.4948 
     53 O          32.8286   31.1454    6.4356 O.2       8 UNK        -0.5275 
     54 N          31.2844   32.6961    5.8435 N.am      9 UNK        -0.4246 
     55 CA         32.0681   33.8943    6.1617 C.3       9 UNK         0.0261 
     56 CB         31.1680   35.1345    6.0397 C.3       9 UNK        -0.1959 
     57 C          33.3339   34.0606    5.2957 C.2       9 UNK         0.5033 
     58 O          34.3033   34.6571    5.7673 O.2       9 UNK        -0.5390 
     59 N          33.3082   33.5319    4.0647 N.am      10 UNK        -0.4215 
     60 CA         34.4490   33.4727    3.1519 C.3       10 UNK         0.0240 
     61 CB         33.9906   33.8675    1.7377 C.3       10 UNK        -0.1982 
     62 C          35.0757   32.0695    3.1418 C.2       10 UNK         0.4970 
     63 O          36.3024   31.9652    3.1064 O.2       10 UNK        -0.4916 
     64 N          34.2358   31.0240    3.1583 N.am      11 UNK        -0.4279 
     65 CA         34.6518   29.6139    3.1262 C.3       11 UNK         0.1003 
     66 C          35.4185   29.1354    4.3930 C.2       11 UNK         0.5709 
     67 N          35.1303   29.6577    5.5787 N.am      11 UNK        -0.7358 
     68 O          36.3032   28.2884    4.2967 O.2       11 UNK        -0.4999 
     69 C69        33.4591   28.6796    2.7786 C.3       12 UNK        -0.0954 
     70 S70        33.9823   27.1843    1.8771 S.3       12 UNK        -0.2268 
     71 C71        33.9828   25.9229    3.1906 C.3       12 UNK         0.0203 
     72 H72        26.0519   18.8709   -2.5010 H         1 UNK         0.0888 
     73 H73        26.4602   17.7082   -1.2385 H         1 UNK         0.0888 
     74 H74        25.0537   18.7586   -1.0500 H         1 UNK         0.0888 
     75 H75        27.3899   20.6482   -2.4737 H         1 UNK         0.3017 
     76 H76        28.7637   22.2311   -1.9280 H         1 UNK         0.0873 
     77 H77        29.5284   21.1507    0.7977 H         1 UNK         0.0745 
     78 H78        29.8899   20.1727   -0.5854 H         1 UNK         0.0745 
     79 H79        33.2781   21.7530    0.5100 H         1 UNK         0.0705 
     80 H80        31.9904   20.8318    1.2346 H         1 UNK         0.0705 
     81 H81        33.8838   23.9186    1.3646 H         1 UNK         0.1334 
     82 H82        31.6543   25.6246    4.6065 H         1 UNK         0.1417 
     83 H83        30.2407   22.0748    2.6687 H         1 UNK         0.1562 
     84 H84        29.6064   24.6198    5.3701 H         1 UNK         0.0748 
     85 H85        29.7456   22.8857    5.3018 H         1 UNK         0.0748 
     86 H86        27.0572   25.4473    5.0292 H         1 UNK         0.0940 
     87 H87        26.3549   25.2996    3.4438 H         1 UNK         0.0940 
     88 H88        29.0742   26.5323    4.1235 H         1 UNK         0.0703 
     89 H89        28.3668   25.4783    1.6044 H         1 UNK         0.3081 
     90 H90        30.2617   27.8103   -0.3953 H         1 UNK         0.0719 
     91 H91        30.6673   24.8733    0.3450 H         1 UNK         0.0809 
     92 H92        31.0886   25.5621   -1.2226 H         1 UNK         0.0809 
     93 H93        31.8917   26.1184    0.2345 H         1 UNK         0.0809 
     94 H94        28.4496   25.5259   -0.7578 H         1 UNK         0.2990 
     95 H95        25.6293   27.5299   -1.4856 H         1 UNK         0.0690 
     96 H96        27.3400   26.0454   -3.5563 H         1 UNK         0.0788 
     97 H97        26.8115   27.7177   -3.6798 H         1 UNK         0.0788 
     98 H98        25.6236   26.4259   -3.7100 H         1 UNK         0.0788 
     99 H99        26.1171   24.7368   -1.8262 H         1 UNK         0.2993 
    100 H100       25.7490   23.7381    1.5486 H         1 UNK         0.0949 
    101 H101       23.7292   23.4408   -0.7418 H         1 UNK         0.0767 
    102 H102       23.8406   22.4139    0.6890 H         1 UNK         0.0767 
    103 H103       23.3707   24.0973    0.8499 H         1 UNK         0.0767 
    104 H104       25.8932   22.1142   -0.7171 H         1 UNK         0.3013 
    105 H105       26.5062   27.5678    1.8697 H         1 UNK         0.3121 
    106 H106       25.3936   29.6284    3.4699 H         1 UNK         0.0774 
    107 H107       24.4831   30.4440    1.2941 H         1 UNK         0.0815 
    108 H108       25.5841   29.3906    0.4176 H         1 UNK         0.0815 
    109 H109       24.3114   28.7009    1.4243 H         1 UNK         0.0815 
    110 H110       28.5108   29.5134    1.9836 H         1 UNK         0.2987 
    111 H111       28.8950   32.4698    2.1817 H         1 UNK         0.0949 
    112 H112       30.4073   30.4108    0.4853 H         1 UNK         0.0806 
    113 H113       29.1662   31.4981   -0.1326 H         1 UNK         0.0806 
    114 H114       30.6698   32.1502    0.4977 H         1 UNK         0.0806 
    115 H115       28.9994   30.3389    4.3549 H         1 UNK         0.3010 
    116 H116       31.4931   29.5235    5.0795 H         1 UNK         0.0829 
    117 H117       30.5943   29.5563    7.4689 H         1 UNK         0.0813 
    118 H118       29.1692   30.3902    6.8626 H         1 UNK         0.0813 
    119 H119       29.5609   28.7617    6.3050 H         1 UNK         0.0813 
    120 H120       30.3654   32.8407    5.4513 H         1 UNK         0.3038 
    121 H121       32.3944   33.8080    7.2003 H         1 UNK         0.0769 
    122 H122       31.7171   36.0413    6.2976 H         1 UNK         0.0811 
    123 H123       30.3133   35.0738    6.7137 H         1 UNK         0.0811 
    124 H124       30.7893   35.2611    5.0246 H         1 UNK         0.0811 
    125 H125       32.4794   33.0212    3.7705 H         1 UNK         0.3204 
    126 H126       35.2200   34.1801    3.4647 H         1 UNK         0.0748 
    127 H127       34.8239   33.8361    1.0344 H         1 UNK         0.0771 
    128 H128       33.2171   33.1982    1.3584 H         1 UNK         0.0771 
    129 H129       33.5912   34.8817    1.7217 H         1 UNK         0.0771 
    130 H130       33.2338   31.1970    3.1426 H         1 UNK         0.2980 
    131 H131       35.3654   29.5492    2.3022 H         1 UNK         0.0545 
    132 H132       34.3694   30.3196    5.7013 H         1 UNK         0.3459 
    133 H133       35.6458   29.3448    6.3851 H         1 UNK         0.3459 
    134 H134       32.8805   28.4089    3.6617 H         1 UNK         0.0616 
    135 H135       32.7583   29.1954    2.1199 H         1 UNK         0.0616 
    136 H136       33.9073   26.3908    4.1729 H         1 UNK         0.0634 
    137 H137       34.9506   25.4195    3.1789 H         1 UNK         0.0634 
@<TRIPOS>BOND
     1    1    2 1    
     2    1   72 1    
     3    1   73 1    
     4    1   74 1    
     5    2    3 2    
     6    2    4 am   BACKBONE|DICT|INTERRES
     7    4    5 1    
     8    4   75 1    
     9    5    6 1    
    10    5   35 1    
    11    5   76 1    
    12    6    7 1    
    13    6   77 1    
    14    6   78 1    
    15    7    8 1    
    16    8    9 1    
    17    8   79 1    
    18    8   80 1    
    19    9   10 ar   
    20    9   14 ar   
    21   10   11 ar   
    22   10   81 1    
    23   11   12 ar   
    24   11   71 1    
    25   12   13 ar   
    26   12   82 1    
    27   13   14 ar   
    28   13   15 1    
    29   14   83 1    
    30   15   16 1    
    31   15   84 1    
    32   15   85 1    
    33   16   17 1    
    34   17   18 1    
    35   17   86 1    
    36   17   87 1    
    37   18   19 1    
    38   18   37 1    
    39   18   88 1    
    40   19   20 am   BACKBONE|DICT|INTERRES
    41   19   89 1    
    42   20   21 2    
    43   20   22 1    
    44   22   23 1    
    45   22   24 1    
    46   22   90 1    
    47   23   91 1    
    48   23   92 1    
    49   23   93 1    
    50   24   25 am   BACKBONE|DICT|INTERRES
    51   24   94 1    
    52   25   26 2    
    53   25   27 1    
    54   27   28 1    
    55   27   29 1    
    56   27   95 1    
    57   28   96 1    
    58   28   97 1    
    59   28   98 1    
    60   29   30 am   BACKBONE|DICT|INTERRES
    61   29   99 1    
    62   30   31 2    
    63   30   32 1    
    64   32   33 1    
    65   32   34 1    
    66   32  100 1    
    67   33  101 1    
    68   33  102 1    
    69   33  103 1    
    70   34   35 am   BACKBONE|DICT|INTERRES
    71   34  104 1    
    72   35   36 2    
    73   37   38 2    
    74   37   39 am   BACKBONE|DICT|INTERRES
    75   39   40 1    
    76   39  105 1    
    77   40   41 1    
    78   40   42 1    
    79   40  106 1    
    80   41  107 1    
    81   41  108 1    
    82   41  109 1    
    83   42   43 2    
    84   42   44 am   BACKBONE|DICT|INTERRES
    85   44   45 1    
    86   44  110 1    
    87   45   46 1    
    88   45   47 1    
    89   45  111 1    
    90   46  112 1    
    91   46  113 1    
    92   46  114 1    
    93   47   48 2    
    94   47   49 am   BACKBONE|DICT|INTERRES
    95   49   50 1    
    96   49  115 1    
    97   50   51 1    
    98   50   52 1    
    99   50  116 1    
   100   51  117 1    
   101   51  118 1    
   102   51  119 1    
   103   52   53 2    
   104   52   54 am   BACKBONE|DICT|INTERRES
   105   54   55 1    
   106   54  120 1    
   107   55   56 1    
   108   55   57 1    
   109   55  121 1    
   110   56  122 1    
   111   56  123 1    
   112   56  124 1    
   113   57   58 2    
   114   57   59 am   BACKBONE|DICT|INTERRES
   115   59   60 1    
   116   59  125 1    
   117   60   61 1    
   118   60   62 1    
   119   60  126 1    
   120   61  127 1    
   121   61  128 1    
   122   61  129 1    
   123   62   63 2    
   124   62   64 am   BACKBONE|DICT|INTERRES
   125   64   65 1    
   126   64  130 1    
   127   65   66 1    
   128   65   69 1    
   129   65  131 1    
   130   66   67 am   BACKBONE|DICT|INTERRES
   131   66   68 2    
   132   67  132 1    
   133   67  133 1    
   134   69   70 1    
   135   69  134 1    
   136   69  135 1    
   137   70   71 1    
   138   71  136 1    
   139   71  137 1    
@<TRIPOS>SUBSTRUCTURE
     1 UNK         1 GROUP             0       ****    0 ROOT    
