@<TRIPOS>MOLECULE
3R136
137   139    1
SMALL
USER_CHARGES


@<TRIPOS>ATOM
      1 CA         33.5271   23.7504   -3.5594 C.3       0 UNK        -0.1979 
      2 C          32.6780   24.4690   -2.5213 C.2       0 UNK         0.4864 
      3 O          32.5573   25.6932   -2.5731 O.2       0 UNK        -0.5359 
      4 N          32.0913   23.7161   -1.5807 N.am      1 UNK        -0.4318 
      5 CA         31.2467   24.2291   -0.4919 C.3       1 UNK         0.0824 
      6 C6         30.9869   23.1571    0.5916 C.3       12 UNK        -0.0944 
      7 S7         32.5233   22.4592    1.2876 S.3       12 UNK        -0.2672 
      8 C8         31.8571   21.3269    2.5506 C.3       12 UNK         0.0333 
      9 C9         31.0565   22.0833    3.5985 C.ar      12 UNK        -0.0807 
     10 C10        31.7140   22.8877    4.5312 C.ar      12 UNK        -0.0894 
     11 C11        30.9895   23.6716    5.4356 C.ar      12 UNK        -0.0804 
     12 C12        29.5921   23.5948    5.4354 C.ar      12 UNK        -0.0824 
     13 C13        28.9218   22.7855    4.5100 C.ar      12 UNK        -0.0762 
     14 C14        29.6605   22.0274    3.5984 C.ar      12 UNK        -0.0782 
     15 C15        27.4003   22.7458    4.4649 C.3       12 UNK         0.0230 
     16 S16        26.7322   23.9372    3.2542 S.3       12 UNK        -0.2608 
     17 C17        27.0522   25.5148    4.1067 C.3       12 UNK        -0.0989 
     18 CA         28.3054   26.2384    3.5330 C.3       5 UNK         0.0716 
     19 N          28.0317   26.9129    2.2568 N.am      5 UNK        -0.4135 
     20 C          27.3354   28.0485    2.0944 C.2       4 UNK         0.5031 
     21 O          26.8423   28.6995    3.0165 O.2       4 UNK        -0.5229 
     22 CA         27.1300   28.5338    0.6537 C.3       4 UNK         0.0329 
     23 CB         28.4325   29.0931    0.0551 C.3       4 UNK        -0.2001 
     24 N          26.5908   27.4878   -0.2147 N.am      4 UNK        -0.4303 
     25 C          25.3534   26.9717   -0.1287 C.2       3 UNK         0.5044 
     26 O          24.5244   27.3277    0.7095 O.2       3 UNK        -0.5152 
     27 CA         24.9469   25.9085   -1.1702 C.3       3 UNK         0.0319 
     28 CB         23.7442   26.3901   -2.0007 C.3       3 UNK        -0.2001 
     29 N          26.0461   25.5864   -2.0824 N.am      3 UNK        -0.4354 
     30 C          26.9325   24.6020   -1.8941 C.2       2 UNK         0.4964 
     31 O          26.8176   23.7328   -1.0279 O.2       2 UNK        -0.5047 
     32 CA         28.1679   24.5971   -2.8188 C.3       2 UNK         0.0288 
     33 CB         28.3871   25.9217   -3.5879 C.3       2 UNK        -0.2113 
     34 N          29.3982   24.2369   -2.1059 N.am      2 UNK        -0.4145 
     35 C          29.9018   24.7987   -0.9925 C.2       1 UNK         0.5006 
     36 O          29.3612   25.7138   -0.3640 O.2       1 UNK        -0.5103 
     37 C          28.9768   27.1881    4.5522 C.2       5 UNK         0.5055 
     38 O          30.1791   27.4204    4.4530 O.2       5 UNK        -0.5220 
     39 N          28.2000   27.7153    5.5088 N.am      6 UNK        -0.4450 
     40 CA         28.6578   28.6288    6.5566 C.3       6 UNK         0.0367 
     41 CB         27.6510   28.5907    7.7183 C.3       6 UNK        -0.1929 
     42 C          28.8758   30.0769    6.0771 C.2       6 UNK         0.5070 
     43 O          29.4620   30.8615    6.8241 O.2       6 UNK        -0.5237 
     44 N          28.3907   30.4292    4.8769 N.am      7 UNK        -0.4739 
     45 CA         28.5852   31.7481    4.2675 C.3       7 UNK         0.0276 
     46 CB         27.6404   31.8987    3.0648 C.3       7 UNK        -0.1927 
     47 C          30.0451   31.9758    3.8396 C.2       7 UNK         0.5013 
     48 O          30.7716   31.0140    3.5731 O.2       7 UNK        -0.5193 
     49 N          30.4379   33.2538    3.7421 N.am      8 UNK        -0.4253 
     50 CA         31.8008   33.7218    3.4466 C.3       8 UNK         0.0242 
     51 CB         31.8255   35.2581    3.5086 C.3       8 UNK        -0.2000 
     52 C          32.4039   33.2309    2.1156 C.2       8 UNK         0.4948 
     53 O          33.6269   33.2398    1.9740 O.2       8 UNK        -0.5275 
     54 N          31.5522   32.7980    1.1761 N.am      9 UNK        -0.4246 
     55 CA         31.9475   32.1443   -0.0735 C.3       9 UNK         0.0261 
     56 CB         30.7464   32.1320   -1.0338 C.3       9 UNK        -0.1959 
     57 C          32.5074   30.7191    0.1211 C.2       9 UNK         0.5033 
     58 O          33.1730   30.2204   -0.7880 O.2       9 UNK        -0.5390 
     59 N          32.2371   30.0935    1.2749 N.am      10 UNK        -0.4215 
     60 CA         32.7295   28.7753    1.6625 C.3       10 UNK         0.0240 
     61 CB         31.5755   27.7580    1.6042 C.3       10 UNK        -0.1982 
     62 C          33.4322   28.8977    3.0243 C.2       10 UNK         0.4970 
     63 O          34.5279   29.4603    3.0632 O.2       10 UNK        -0.4916 
     64 N          32.8387   28.3691    4.1031 N.am      11 UNK        -0.4279 
     65 CA         33.4398   28.3500    5.4498 C.3       11 UNK         0.1003 
     66 C          33.4158   29.7139    6.1969 C.2       11 UNK         0.5709 
     67 N          32.6860   30.7210    5.7376 N.am      11 UNK        -0.7358 
     68 O          34.0877   29.8642    7.2150 O.2       11 UNK        -0.4999 
     69 C69        32.8562   27.2208    6.3421 C.3       12 UNK        -0.0954 
     70 S70        33.0303   25.5736    5.5809 S.3       12 UNK        -0.2268 
     71 C71        31.7054   24.6159    6.3985 C.3       12 UNK         0.0203 
     72 H72        33.5518   22.6736   -3.3923 H         1 UNK         0.0888 
     73 H73        33.1300   23.9297   -4.5581 H         1 UNK         0.0888 
     74 H74        34.5512   24.1214   -3.5278 H         1 UNK         0.0888 
     75 H75        32.2580   22.7196   -1.5668 H         1 UNK         0.3017 
     76 H76        31.7853   25.0563   -0.0248 H         1 UNK         0.0873 
     77 H77        30.4107   23.6010    1.4056 H         1 UNK         0.0745 
     78 H78        30.3836   22.3378    0.1949 H         1 UNK         0.0745 
     79 H79        32.6836   20.8016    3.0314 H         1 UNK         0.0705 
     80 H80        31.2458   20.5637    2.0664 H         1 UNK         0.0705 
     81 H81        32.7942   22.9378    4.5177 H         1 UNK         0.1334 
     82 H82        29.0245   24.1878    6.1388 H         1 UNK         0.1417 
     83 H83        29.1453   21.4191    2.8671 H         1 UNK         0.1562 
     84 H84        26.9791   22.9392    5.4527 H         1 UNK         0.0748 
     85 H85        27.0677   21.7439    4.1889 H         1 UNK         0.0748 
     86 H86        27.1555   25.3010    5.1714 H         1 UNK         0.0940 
     87 H87        26.1623   26.1405    4.0177 H         1 UNK         0.0940 
     88 H88        29.0633   25.4855    3.3096 H         1 UNK         0.0703 
     89 H89        28.4131   26.4646    1.4305 H         1 UNK         0.3081 
     90 H90        26.4034   29.3486    0.6877 H         1 UNK         0.0719 
     91 H91        28.9198   29.7872    0.7400 H         1 UNK         0.0809 
     92 H92        29.1525   28.3069   -0.1664 H         1 UNK         0.0809 
     93 H93        28.2380   29.6322   -0.8720 H         1 UNK         0.0809 
     94 H94        27.2264   27.0932   -0.8924 H         1 UNK         0.2990 
     95 H95        24.6444   25.0146   -0.6205 H         1 UNK         0.0690 
     96 H96        23.9714   27.3052   -2.5493 H         1 UNK         0.0788 
     97 H97        22.8846   26.5979   -1.3620 H         1 UNK         0.0788 
     98 H98        23.4328   25.6342   -2.7220 H         1 UNK         0.0788 
     99 H99        26.2078   26.2371   -2.8385 H         1 UNK         0.2993 
    100 H100       27.9920   23.8083   -3.5519 H         1 UNK         0.0949 
    101 H101       28.5137   26.7703   -2.9140 H         1 UNK         0.0767 
    102 H102       29.2818   25.8660   -4.2086 H         1 UNK         0.0767 
    103 H103       27.5562   26.1419   -4.2593 H         1 UNK         0.0767 
    104 H104       29.9190   23.4693   -2.5049 H         1 UNK         0.3013 
    105 H105       27.2069   27.5375    5.4712 H         1 UNK         0.3121 
    106 H106       29.6180   28.2691    6.9307 H         1 UNK         0.0774 
    107 H107       27.9792   29.2276    8.5409 H         1 UNK         0.0815 
    108 H108       26.6651   28.9407    7.4096 H         1 UNK         0.0815 
    109 H109       27.5419   27.5821    8.1173 H         1 UNK         0.0815 
    110 H110       27.9196   29.7293    4.3109 H         1 UNK         0.2987 
    111 H111       28.3233   32.5029    5.0124 H         1 UNK         0.0949 
    112 H112       27.6987   32.9008    2.6384 H         1 UNK         0.0806 
    113 H113       27.8821   31.1932    2.2716 H         1 UNK         0.0806 
    114 H114       26.6023   31.7310    3.3528 H         1 UNK         0.0806 
    115 H115       29.7638   33.9754    3.9555 H         1 UNK         0.3010 
    116 H116       32.4477   33.3402    4.2391 H         1 UNK         0.0829 
    117 H117       31.5183   35.6225    4.4891 H         1 UNK         0.0813 
    118 H118       32.8305   35.6416    3.3256 H         1 UNK         0.0813 
    119 H119       31.1668   35.7025    2.7614 H         1 UNK         0.0813 
    120 H120       30.5639   32.8446    1.3747 H         1 UNK         0.3038 
    121 H121       32.7404   32.7401   -0.5310 H         1 UNK         0.0769 
    122 H122       30.4175   33.1442   -1.2696 H         1 UNK         0.0811 
    123 H123       31.0046   31.6497   -1.9777 H         1 UNK         0.0811 
    124 H124       29.8978   31.5930   -0.6140 H         1 UNK         0.0811 
    125 H125       31.7148   30.5850    1.9978 H         1 UNK         0.3204 
    126 H126       33.4992   28.4359    0.9663 H         1 UNK         0.0748 
    127 H127       31.3165   27.5357    0.5694 H         1 UNK         0.0771 
    128 H128       31.8389   26.8107    2.0773 H         1 UNK         0.0771 
    129 H129       30.6790   28.1446    2.0861 H         1 UNK         0.0771 
    130 H130       31.9055   27.9669    4.0352 H         1 UNK         0.2980 
    131 H131       34.4988   28.1201    5.3174 H         1 UNK         0.0545 
    132 H132       32.0949   30.6080    4.9206 H         1 UNK         0.3459 
    133 H133       32.6767   31.5872    6.2496 H         1 UNK         0.3459 
    134 H134       33.3609   27.1909    7.3095 H         1 UNK         0.0616 
    135 H135       31.8048   27.4178    6.5499 H         1 UNK         0.0616 
    136 H136       30.9861   25.3007    6.8495 H         1 UNK         0.0634 
    137 H137       32.1380   24.0369    7.2150 H         1 UNK         0.0634 
@<TRIPOS>BOND
     1    1    2 1    
     2    1   72 1    
     3    1   73 1    
     4    1   74 1    
     5    2    3 2    
     6    2    4 am   BACKBONE|DICT|INTERRES
     7    4    5 1    
     8    4   75 1    
     9    5    6 1    
    10    5   35 1    
    11    5   76 1    
    12    6    7 1    
    13    6   77 1    
    14    6   78 1    
    15    7    8 1    
    16    8    9 1    
    17    8   79 1    
    18    8   80 1    
    19    9   10 ar   
    20    9   14 ar   
    21   10   11 ar   
    22   10   81 1    
    23   11   12 ar   
    24   11   71 1    
    25   12   13 ar   
    26   12   82 1    
    27   13   14 ar   
    28   13   15 1    
    29   14   83 1    
    30   15   16 1    
    31   15   84 1    
    32   15   85 1    
    33   16   17 1    
    34   17   18 1    
    35   17   86 1    
    36   17   87 1    
    37   18   19 1    
    38   18   37 1    
    39   18   88 1    
    40   19   20 am   BACKBONE|DICT|INTERRES
    41   19   89 1    
    42   20   21 2    
    43   20   22 1    
    44   22   23 1    
    45   22   24 1    
    46   22   90 1    
    47   23   91 1    
    48   23   92 1    
    49   23   93 1    
    50   24   25 am   BACKBONE|DICT|INTERRES
    51   24   94 1    
    52   25   26 2    
    53   25   27 1    
    54   27   28 1    
    55   27   29 1    
    56   27   95 1    
    57   28   96 1    
    58   28   97 1    
    59   28   98 1    
    60   29   30 am   BACKBONE|DICT|INTERRES
    61   29   99 1    
    62   30   31 2    
    63   30   32 1    
    64   32   33 1    
    65   32   34 1    
    66   32  100 1    
    67   33  101 1    
    68   33  102 1    
    69   33  103 1    
    70   34   35 am   BACKBONE|DICT|INTERRES
    71   34  104 1    
    72   35   36 2    
    73   37   38 2    
    74   37   39 am   BACKBONE|DICT|INTERRES
    75   39   40 1    
    76   39  105 1    
    77   40   41 1    
    78   40   42 1    
    79   40  106 1    
    80   41  107 1    
    81   41  108 1    
    82   41  109 1    
    83   42   43 2    
    84   42   44 am   BACKBONE|DICT|INTERRES
    85   44   45 1    
    86   44  110 1    
    87   45   46 1    
    88   45   47 1    
    89   45  111 1    
    90   46  112 1    
    91   46  113 1    
    92   46  114 1    
    93   47   48 2    
    94   47   49 am   BACKBONE|DICT|INTERRES
    95   49   50 1    
    96   49  115 1    
    97   50   51 1    
    98   50   52 1    
    99   50  116 1    
   100   51  117 1    
   101   51  118 1    
   102   51  119 1    
   103   52   53 2    
   104   52   54 am   BACKBONE|DICT|INTERRES
   105   54   55 1    
   106   54  120 1    
   107   55   56 1    
   108   55   57 1    
   109   55  121 1    
   110   56  122 1    
   111   56  123 1    
   112   56  124 1    
   113   57   58 2    
   114   57   59 am   BACKBONE|DICT|INTERRES
   115   59   60 1    
   116   59  125 1    
   117   60   61 1    
   118   60   62 1    
   119   60  126 1    
   120   61  127 1    
   121   61  128 1    
   122   61  129 1    
   123   62   63 2    
   124   62   64 am   BACKBONE|DICT|INTERRES
   125   64   65 1    
   126   64  130 1    
   127   65   66 1    
   128   65   69 1    
   129   65  131 1    
   130   66   67 am   BACKBONE|DICT|INTERRES
   131   66   68 2    
   132   67  132 1    
   133   67  133 1    
   134   69   70 1    
   135   69  134 1    
   136   69  135 1    
   137   70   71 1    
   138   71  136 1    
   139   71  137 1    
@<TRIPOS>SUBSTRUCTURE
     1 UNK         1 GROUP             0       ****    0 ROOT    
