@<TRIPOS>MOLECULE
3R136
137   139    1
SMALL
USER_CHARGES


@<TRIPOS>ATOM
      1 CA         30.7941   28.3118   -2.9733 C.3       0 UNK        -0.1979 
      2 C          30.5031   26.9010   -2.4850 C.2       0 UNK         0.4864 
      3 O          30.4221   25.9873   -3.3067 O.2       0 UNK        -0.5359 
      4 N          30.3557   26.7200   -1.1619 N.am      1 UNK        -0.4318 
      5 CA         30.0532   25.4470   -0.4934 C.3       1 UNK         0.0824 
      6 C6         31.2093   24.4168   -0.6556 C.3       12 UNK        -0.0944 
      7 S7         31.0882   22.9501    0.4240 S.3       12 UNK        -0.2672 
      8 C8         32.0798   23.4343    1.8755 C.3       12 UNK         0.0333 
      9 C9         31.2901   24.1718    2.9546 C.ar      12 UNK        -0.0807 
     10 C10        31.8985   25.2173    3.6579 C.ar      12 UNK        -0.0894 
     11 C11        31.2483   25.8268    4.7360 C.ar      12 UNK        -0.0804 
     12 C12        29.9644   25.4050    5.0877 C.ar      12 UNK        -0.0824 
     13 C13        29.3251   24.3901    4.3711 C.ar      12 UNK        -0.0762 
     14 C14        29.9973   23.7677    3.3152 C.ar      12 UNK        -0.0782 
     15 C15        27.9180   23.9532    4.7591 C.3       12 UNK         0.0230 
     16 S16        26.6394   24.6598    3.6672 S.3       12 UNK        -0.2608 
     17 C17        26.9174   26.4542    3.8504 C.3       12 UNK        -0.0989 
     18 CA         27.5502   27.0469    2.5631 C.3       5 UNK         0.0716 
     19 N          26.6311   27.0731    1.4153 N.am      5 UNK        -0.4135 
     20 C          25.4659   27.7280    1.3028 C.2       4 UNK         0.5031 
     21 O          24.9959   28.4643    2.1719 O.2       4 UNK        -0.5229 
     22 CA         24.6921   27.5285   -0.0073 C.3       4 UNK         0.0329 
     23 CB         25.3284   28.3369   -1.1511 C.3       4 UNK        -0.2001 
     24 N          24.5990   26.1161   -0.3816 N.am      4 UNK        -0.4303 
     25 C          23.7914   25.2256    0.2163 C.2       3 UNK         0.5044 
     26 O          23.0320   25.5110    1.1430 O.2       3 UNK        -0.5152 
     27 CA         23.7918   23.7810   -0.3208 C.3       3 UNK         0.0319 
     28 CB         22.5046   23.5045   -1.1160 C.3       3 UNK        -0.2001 
     29 N          24.9448   23.4919   -1.1753 N.am      3 UNK        -0.4354 
     30 C          26.1509   23.1253   -0.7244 C.2       2 UNK         0.4964 
     31 O          26.3936   22.8818    0.4583 O.2       2 UNK        -0.5047 
     32 CA         27.2873   23.0192   -1.7617 C.3       2 UNK         0.0288 
     33 CB         26.9109   23.5281   -3.1734 C.3       2 UNK        -0.2113 
     34 N          28.5097   23.6861   -1.3008 N.am      2 UNK        -0.4145 
     35 C          28.6431   24.9619   -0.9084 C.2       1 UNK         0.5006 
     36 O          27.7068   25.7658   -0.8589 O.2       1 UNK        -0.5103 
     37 C          28.2245   28.4096    2.8190 C.2       5 UNK         0.5055 
     38 O          29.4452   28.5157    2.6920 O.2       5 UNK        -0.5220 
     39 N          27.4224   29.4406    3.1184 N.am      6 UNK        -0.4450 
     40 CA         27.8424   30.8224    3.3840 C.3       6 UNK         0.0367 
     41 CB         26.6194   31.6446    3.8186 C.3       6 UNK        -0.1929 
     42 C          28.5588   31.5057    2.2041 C.2       6 UNK         0.5070 
     43 O          29.2802   32.4796    2.4152 O.2       6 UNK        -0.5237 
     44 N          28.3936   30.9610    0.9915 N.am      7 UNK        -0.4739 
     45 CA         29.1423   31.3353   -0.2094 C.3       7 UNK         0.0276 
     46 CB         28.5169   30.6261   -1.4218 C.3       7 UNK        -0.1927 
     47 C          30.6544   31.0377   -0.1190 C.2       7 UNK         0.5013 
     48 O          31.4199   31.6368   -0.8741 O.2       7 UNK        -0.5193 
     49 N          31.0602   30.1352    0.7875 N.am      8 UNK        -0.4253 
     50 CA         32.4554   29.8100    1.0898 C.3       8 UNK         0.0242 
     51 CB         32.7873   28.4009    0.5590 C.3       8 UNK        -0.2000 
     52 C          32.7210   29.9461    2.5991 C.2       8 UNK         0.4948 
     53 O          33.4291   29.1114    3.1628 O.2       8 UNK        -0.5275 
     54 N          32.1422   30.9826    3.2290 N.am      9 UNK        -0.4246 
     55 CA         32.2584   31.2908    4.6608 C.3       9 UNK         0.0261 
     56 CB         31.4559   32.5649    4.9750 C.3       9 UNK        -0.1959 
     57 C          33.7096   31.4436    5.1567 C.2       9 UNK         0.5033 
     58 O          34.5941   31.8141    4.3803 O.2       9 UNK        -0.5390 
     59 N          33.9029   31.1681    6.4557 N.am      10 UNK        -0.4215 
     60 CA         35.1902   31.0473    7.1562 C.3       10 UNK         0.0240 
     61 CB         35.9850   32.3720    7.1388 C.3       10 UNK        -0.1982 
     62 C          36.0074   29.8319    6.6699 C.2       10 UNK         0.4970 
     63 O          37.2344   29.9040    6.5774 O.2       10 UNK        -0.4916 
     64 N          35.2986   28.7345    6.3763 N.am      11 UNK        -0.4279 
     65 CA         35.8446   27.4201    6.0177 C.3       11 UNK         0.1003 
     66 C          36.6593   26.7508    7.1619 C.2       11 UNK         0.5709 
     67 N          37.5636   25.8410    6.8244 N.am      11 UNK        -0.7358 
     68 O          36.4660   27.0246    8.3459 O.2       11 UNK        -0.4999 
     69 C69        34.7328   26.4846    5.4647 C.3       12 UNK        -0.0954 
     70 S70        33.2820   26.3087    6.5697 S.3       12 UNK        -0.2268 
     71 C71        31.9218   26.9366    5.5319 C.3       12 UNK         0.0203 
     72 H72        29.9455   28.6951   -3.5390 H         1 UNK         0.0888 
     73 H73        30.9973   28.9963   -2.1527 H         1 UNK         0.0888 
     74 H74        31.6653   28.3092   -3.6277 H         1 UNK         0.0888 
     75 H75        30.4007   27.5211   -0.5502 H         1 UNK         0.3017 
     76 H76        29.9805   25.6832    0.5691 H         1 UNK         0.0873 
     77 H77        31.2762   24.0695   -1.6879 H         1 UNK         0.0745 
     78 H78        32.1633   24.9083   -0.4591 H         1 UNK         0.0745 
     79 H79        32.4852   22.5265    2.3239 H         1 UNK         0.0705 
     80 H80        32.9412   24.0198    1.5508 H         1 UNK         0.0705 
     81 H81        32.8961   25.5342    3.3896 H         1 UNK         0.1334 
     82 H82        29.4595   25.8711    5.9226 H         1 UNK         0.1417 
     83 H83        29.5136   22.9588    2.7846 H         1 UNK         0.1562 
     84 H84        27.6997   24.2321    5.7912 H         1 UNK         0.0748 
     85 H85        27.8506   22.8650    4.7201 H         1 UNK         0.0748 
     86 H86        27.5438   26.6365    4.7236 H         1 UNK         0.0940 
     87 H87        25.9635   26.9304    4.0803 H         1 UNK         0.0940 
     88 H88        28.3610   26.3800    2.2655 H         1 UNK         0.0703 
     89 H89        26.9342   26.5269    0.6107 H         1 UNK         0.3081 
     90 H90        23.6795   27.9087    0.1453 H         1 UNK         0.0719 
     91 H91        26.3400   28.0012   -1.3804 H         1 UNK         0.0809 
     92 H92        24.7377   28.2604   -2.0641 H         1 UNK         0.0809 
     93 H93        25.3864   29.3953   -0.8936 H         1 UNK         0.0809 
     94 H94        25.2337   25.7911   -1.0973 H         1 UNK         0.2990 
     95 H95        23.8071   23.1116    0.5423 H         1 UNK         0.0690 
     96 H96        22.4634   22.4698   -1.4570 H         1 UNK         0.0788 
     97 H97        22.4219   24.1511   -1.9906 H         1 UNK         0.0788 
     98 H98        21.6205   23.6756   -0.5000 H         1 UNK         0.0788 
     99 H99        24.8307   23.6540   -2.1658 H         1 UNK         0.2993 
    100 H100       27.5247   21.9573   -1.8408 H         1 UNK         0.0949 
    101 H101       26.6260   24.5812   -3.1686 H         1 UNK         0.0767 
    102 H102       27.7520   23.4240   -3.8593 H         1 UNK         0.0767 
    103 H103       26.0865   22.9554   -3.6000 H         1 UNK         0.0767 
    104 H104       29.3297   23.0979   -1.2267 H         1 UNK         0.3013 
    105 H105       26.4204   29.2612    3.0912 H         1 UNK         0.3121 
    106 H106       28.5510   30.7929    4.2140 H         1 UNK         0.0774 
    107 H107       25.8602   31.6810    3.0362 H         1 UNK         0.0815 
    108 H108       26.9010   32.6732    4.0491 H         1 UNK         0.0815 
    109 H109       26.1590   31.2284    4.7147 H         1 UNK         0.0815 
    110 H110       27.7690   30.1729    0.9130 H         1 UNK         0.2987 
    111 H111       29.0363   32.4136   -0.3481 H         1 UNK         0.0949 
    112 H112       28.5463   29.5411   -1.3176 H         1 UNK         0.0806 
    113 H113       27.4765   30.9211   -1.5591 H         1 UNK         0.0806 
    114 H114       29.0452   30.8839   -2.3409 H         1 UNK         0.0806 
    115 H115       30.3728   29.7021    1.4000 H         1 UNK         0.3010 
    116 H116       33.1266   30.5210    0.6036 H         1 UNK         0.0829 
    117 H117       32.6626   28.3431   -0.5209 H         1 UNK         0.0813 
    118 H118       33.8250   28.1375    0.7676 H         1 UNK         0.0813 
    119 H119       32.1602   27.6386    1.0235 H         1 UNK         0.0813 
    120 H120       31.5761   31.6170    2.6822 H         1 UNK         0.3038 
    121 H121       31.8063   30.4549    5.1986 H         1 UNK         0.0769 
    122 H122       31.7847   33.4077    4.3657 H         1 UNK         0.0811 
    123 H123       31.5648   32.8580    6.0201 H         1 UNK         0.0811 
    124 H124       30.3911   32.4181    4.8001 H         1 UNK         0.0811 
    125 H125       33.0919   30.9267    7.0095 H         1 UNK         0.3204 
    126 H126       34.9445   30.8371    8.1984 H         1 UNK         0.0748 
    127 H127       36.8500   32.3144    7.8006 H         1 UNK         0.0771 
    128 H128       36.3584   32.6125    6.1432 H         1 UNK         0.0771 
    129 H129       35.3728   33.2070    7.4791 H         1 UNK         0.0771 
    130 H130       34.2982   28.7591    6.4946 H         1 UNK         0.2980 
    131 H131       36.5503   27.5984    5.2039 H         1 UNK         0.0545 
    132 H132       37.7275   25.5999    5.8594 H         1 UNK         0.3459 
    133 H133       38.0955   25.3873    7.5508 H         1 UNK         0.3459 
    134 H134       35.1284   25.4896    5.2543 H         1 UNK         0.0616 
    135 H135       34.4053   26.8726    4.5002 H         1 UNK         0.0616 
    136 H136       31.1968   27.4236    6.1857 H         1 UNK         0.0634 
    137 H137       32.2760   27.7139    4.8601 H         1 UNK         0.0634 
@<TRIPOS>BOND
     1    1    2 1    
     2    1   72 1    
     3    1   73 1    
     4    1   74 1    
     5    2    3 2    
     6    2    4 am   BACKBONE|DICT|INTERRES
     7    4    5 1    
     8    4   75 1    
     9    5    6 1    
    10    5   35 1    
    11    5   76 1    
    12    6    7 1    
    13    6   77 1    
    14    6   78 1    
    15    7    8 1    
    16    8    9 1    
    17    8   79 1    
    18    8   80 1    
    19    9   10 ar   
    20    9   14 ar   
    21   10   11 ar   
    22   10   81 1    
    23   11   12 ar   
    24   11   71 1    
    25   12   13 ar   
    26   12   82 1    
    27   13   14 ar   
    28   13   15 1    
    29   14   83 1    
    30   15   16 1    
    31   15   84 1    
    32   15   85 1    
    33   16   17 1    
    34   17   18 1    
    35   17   86 1    
    36   17   87 1    
    37   18   19 1    
    38   18   37 1    
    39   18   88 1    
    40   19   20 am   BACKBONE|DICT|INTERRES
    41   19   89 1    
    42   20   21 2    
    43   20   22 1    
    44   22   23 1    
    45   22   24 1    
    46   22   90 1    
    47   23   91 1    
    48   23   92 1    
    49   23   93 1    
    50   24   25 am   BACKBONE|DICT|INTERRES
    51   24   94 1    
    52   25   26 2    
    53   25   27 1    
    54   27   28 1    
    55   27   29 1    
    56   27   95 1    
    57   28   96 1    
    58   28   97 1    
    59   28   98 1    
    60   29   30 am   BACKBONE|DICT|INTERRES
    61   29   99 1    
    62   30   31 2    
    63   30   32 1    
    64   32   33 1    
    65   32   34 1    
    66   32  100 1    
    67   33  101 1    
    68   33  102 1    
    69   33  103 1    
    70   34   35 am   BACKBONE|DICT|INTERRES
    71   34  104 1    
    72   35   36 2    
    73   37   38 2    
    74   37   39 am   BACKBONE|DICT|INTERRES
    75   39   40 1    
    76   39  105 1    
    77   40   41 1    
    78   40   42 1    
    79   40  106 1    
    80   41  107 1    
    81   41  108 1    
    82   41  109 1    
    83   42   43 2    
    84   42   44 am   BACKBONE|DICT|INTERRES
    85   44   45 1    
    86   44  110 1    
    87   45   46 1    
    88   45   47 1    
    89   45  111 1    
    90   46  112 1    
    91   46  113 1    
    92   46  114 1    
    93   47   48 2    
    94   47   49 am   BACKBONE|DICT|INTERRES
    95   49   50 1    
    96   49  115 1    
    97   50   51 1    
    98   50   52 1    
    99   50  116 1    
   100   51  117 1    
   101   51  118 1    
   102   51  119 1    
   103   52   53 2    
   104   52   54 am   BACKBONE|DICT|INTERRES
   105   54   55 1    
   106   54  120 1    
   107   55   56 1    
   108   55   57 1    
   109   55  121 1    
   110   56  122 1    
   111   56  123 1    
   112   56  124 1    
   113   57   58 2    
   114   57   59 am   BACKBONE|DICT|INTERRES
   115   59   60 1    
   116   59  125 1    
   117   60   61 1    
   118   60   62 1    
   119   60  126 1    
   120   61  127 1    
   121   61  128 1    
   122   61  129 1    
   123   62   63 2    
   124   62   64 am   BACKBONE|DICT|INTERRES
   125   64   65 1    
   126   64  130 1    
   127   65   66 1    
   128   65   69 1    
   129   65  131 1    
   130   66   67 am   BACKBONE|DICT|INTERRES
   131   66   68 2    
   132   67  132 1    
   133   67  133 1    
   134   69   70 1    
   135   69  134 1    
   136   69  135 1    
   137   70   71 1    
   138   71  136 1    
   139   71  137 1    
@<TRIPOS>SUBSTRUCTURE
     1 UNK         1 GROUP             0       ****    0 ROOT    
