@<TRIPOS>MOLECULE
3R136
137   139    1
SMALL
USER_CHARGES


@<TRIPOS>ATOM
      1 CA         29.6949   24.7079    4.0588 C.3       0 UNK        -0.1979 
      2 C          29.1195   23.6639    3.1141 C.2       0 UNK         0.4864 
      3 O          28.0488   23.1192    3.3875 O.2       0 UNK        -0.5359 
      4 N          29.8197   23.3741    2.0092 N.am      1 UNK        -0.4318 
      5 CA         29.3808   22.4359    0.9733 C.3       1 UNK         0.0824 
      6 C6         30.5522   21.9215    0.0985 C.3       12 UNK        -0.0944 
      7 S7         31.8071   21.0237    1.0746 S.3       12 UNK        -0.2672 
      8 C8         33.3084   22.0121    0.7784 C.3       12 UNK         0.0333 
      9 C9         33.2140   23.3962    1.4028 C.ar      12 UNK        -0.0807 
     10 C10        33.4026   23.5611    2.7781 C.ar      12 UNK        -0.0894 
     11 C11        33.3198   24.8306    3.3569 C.ar      12 UNK        -0.0804 
     12 C12        33.0372   25.9380    2.5510 C.ar      12 UNK        -0.0824 
     13 C13        32.8378   25.7843    1.1761 C.ar      12 UNK        -0.0762 
     14 C14        32.9430   24.5127    0.6061 C.ar      12 UNK        -0.0782 
     15 C15        32.5087   26.9878    0.3020 C.3       12 UNK         0.0230 
     16 S16        30.8452   26.8654   -0.4304 S.3       12 UNK        -0.2608 
     17 C17        29.7668   26.9318    1.0416 C.3       12 UNK        -0.0989 
     18 CA         28.6830   28.0358    0.9529 C.3       5 UNK         0.0716 
     19 N          27.7896   27.8165   -0.1858 N.am      5 UNK        -0.4135 
     20 C          27.6596   28.6347   -1.2385 C.2       4 UNK         0.5031 
     21 O          28.2697   29.6967   -1.3660 O.2       4 UNK        -0.5229 
     22 CA         26.6761   28.2099   -2.3472 C.3       4 UNK         0.0329 
     23 CB         27.4383   27.5518   -3.5089 C.3       4 UNK        -0.2001 
     24 N          25.6185   27.3007   -1.8976 N.am      4 UNK        -0.4303 
     25 C          24.6990   27.5845   -0.9649 C.2       3 UNK         0.5044 
     26 O          24.6143   28.6726   -0.3958 O.2       3 UNK        -0.5152 
     27 CA         23.7507   26.4445   -0.5551 C.3       3 UNK         0.0319 
     28 CB         22.4601   26.4995   -1.3876 C.3       3 UNK        -0.2001 
     29 N          24.3299   25.0976   -0.6464 N.am      3 UNK        -0.4354 
     30 C          25.4541   24.6716   -0.0491 C.2       2 UNK         0.4964 
     31 O          26.1908   25.4012    0.6198 O.2       2 UNK        -0.5047 
     32 CA         25.7734   23.1739   -0.2321 C.3       2 UNK         0.0288 
     33 CB         25.7665   22.7514   -1.7196 C.3       2 UNK        -0.2113 
     34 N          27.0148   22.7452    0.4266 N.am      2 UNK        -0.4145 
     35 C          28.2751   23.0803    0.1120 C.2       1 UNK         0.5006 
     36 O          28.5863   23.8437   -0.8048 O.2       1 UNK        -0.5103 
     37 C          27.8797   28.1473    2.2676 C.2       5 UNK         0.5055 
     38 O          28.4731   28.0204    3.3389 O.2       5 UNK        -0.5220 
     39 N          26.5585   28.3847    2.1967 N.am      6 UNK        -0.4450 
     40 CA         25.6934   28.5439    3.3745 C.3       6 UNK         0.0367 
     41 CB         24.2218   28.3854    2.9643 C.3       6 UNK        -0.1929 
     42 C          25.9072   29.8748    4.1200 C.2       6 UNK         0.5070 
     43 O          25.5748   29.9647    5.3024 O.2       6 UNK        -0.5237 
     44 N          26.4637   30.8735    3.4283 N.am      7 UNK        -0.4739 
     45 CA         26.9150   32.1486    3.9726 C.3       7 UNK         0.0276 
     46 CB         25.8619   33.2333    3.6913 C.3       7 UNK        -0.1927 
     47 C          28.2508   32.4841    3.3008 C.2       7 UNK         0.5013 
     48 O          28.4610   32.0824    2.1525 O.2       7 UNK        -0.5193 
     49 N          29.1196   33.2051    4.0263 N.am      8 UNK        -0.4253 
     50 CA         30.4839   33.5939    3.6327 C.3       8 UNK         0.0242 
     51 CB         30.4453   34.6518    2.5084 C.3       8 UNK        -0.2000 
     52 C          31.3735   32.3799    3.2873 C.2       8 UNK         0.4948 
     53 O          32.0865   32.3969    2.2814 O.2       8 UNK        -0.5275 
     54 N          31.2824   31.3323    4.1190 N.am      9 UNK        -0.4246 
     55 CA         31.9776   30.0574    3.9490 C.3       9 UNK         0.0261 
     56 CB         31.4542   29.0580    4.9945 C.3       9 UNK        -0.1959 
     57 C          33.5016   30.2081    4.0755 C.2       9 UNK         0.5033 
     58 O          33.9765   30.8254    5.0324 O.2       9 UNK        -0.5390 
     59 N          34.2350   29.5852    3.1428 N.am      10 UNK        -0.4215 
     60 CA         35.7018   29.5599    3.0760 C.3       10 UNK         0.0240 
     61 CB         36.1276   28.7954    1.8111 C.3       10 UNK        -0.1982 
     62 C          36.3935   28.9620    4.3164 C.2       10 UNK         0.4970 
     63 O          37.5459   29.3040    4.5840 O.2       10 UNK        -0.4916 
     64 N          35.6812   28.0962    5.0479 N.am      11 UNK        -0.4279 
     65 CA         36.1183   27.5035    6.3200 C.3       11 UNK         0.1003 
     66 C          36.1170   28.4959    7.5209 C.2       11 UNK         0.5709 
     67 N          35.5311   29.6843    7.4116 N.am      11 UNK        -0.7358 
     68 O          36.6661   28.1807    8.5741 O.2       11 UNK        -0.4999 
     69 C69        35.3212   26.2157    6.6655 C.3       12 UNK        -0.0954 
     70 S70        35.2830   25.0116    5.2917 S.3       12 UNK        -0.2268 
     71 C71        33.5157   25.0043    4.8545 C.3       12 UNK         0.0203 
     72 H72        30.4968   25.2769    3.5938 H         1 UNK         0.0888 
     73 H73        28.9191   25.4126    4.3581 H         1 UNK         0.0888 
     74 H74        30.0881   24.2296    4.9552 H         1 UNK         0.0888 
     75 H75        30.7056   23.8290    1.8350 H         1 UNK         0.3017 
     76 H76        28.9531   21.5621    1.4706 H         1 UNK         0.0873 
     77 H77        30.1779   21.2318   -0.6604 H         1 UNK         0.0745 
     78 H78        31.0175   22.7409   -0.4505 H         1 UNK         0.0745 
     79 H79        34.1654   21.4840    1.1990 H         1 UNK         0.0705 
     80 H80        33.4914   22.0806   -0.2952 H         1 UNK         0.0705 
     81 H81        33.6145   22.7005    3.3984 H         1 UNK         0.1334 
     82 H82        32.9617   26.9175    2.9979 H         1 UNK         0.1417 
     83 H83        32.7965   24.3950   -0.4593 H         1 UNK         0.1562 
     84 H84        33.2437   27.0560   -0.5013 H         1 UNK         0.0748 
     85 H85        32.5815   27.9192    0.8640 H         1 UNK         0.0748 
     86 H86        29.2935   25.9564    1.1544 H         1 UNK         0.0940 
     87 H87        30.3890   27.0789    1.9253 H         1 UNK         0.0940 
     88 H88        29.1948   28.9949    0.8488 H         1 UNK         0.0703 
     89 H89        27.2431   26.9608   -0.1486 H         1 UNK         0.3081 
     90 H90        26.1947   29.1165   -2.7197 H         1 UNK         0.0719 
     91 H91        27.9253   26.6263   -3.1973 H         1 UNK         0.0809 
     92 H92        26.7745   27.3210   -4.3423 H         1 UNK         0.0809 
     93 H93        28.2160   28.2151   -3.8906 H         1 UNK         0.0809 
     94 H94        25.6157   26.3739   -2.2979 H         1 UNK         0.2990 
     95 H95        23.4823   26.6059    0.4891 H         1 UNK         0.0690 
     96 H96        21.7279   25.7726   -1.0356 H         1 UNK         0.0788 
     97 H97        22.6509   26.3018   -2.4432 H         1 UNK         0.0788 
     98 H98        21.9932   27.4834   -1.3195 H         1 UNK         0.0788 
     99 H99        23.7927   24.4246   -1.1742 H         1 UNK         0.2993 
    100 H100       24.9733   22.6303    0.2729 H         1 UNK         0.0949 
    101 H101       26.0546   21.7063   -1.8343 H         1 UNK         0.0767 
    102 H102       24.7757   22.8547   -2.1627 H         1 UNK         0.0767 
    103 H103       26.4531   23.3525   -2.3170 H         1 UNK         0.0767 
    104 H104       26.8837   22.1880    1.2605 H         1 UNK         0.3013 
    105 H105       26.1211   28.4895    1.2893 H         1 UNK         0.3121 
    106 H106       25.9304   27.7431    4.0785 H         1 UNK         0.0774 
    107 H107       23.9294   29.1157    2.2091 H         1 UNK         0.0815 
    108 H108       23.5600   28.5201    3.8210 H         1 UNK         0.0815 
    109 H109       24.0327   27.3883    2.5700 H         1 UNK         0.0815 
    110 H110       26.7641   30.7009    2.4771 H         1 UNK         0.2987 
    111 H111       27.0746   32.0608    5.0499 H         1 UNK         0.0949 
    112 H112       25.6881   33.3585    2.6217 H         1 UNK         0.0806 
    113 H113       24.9080   32.9884    4.1587 H         1 UNK         0.0806 
    114 H114       26.1788   34.1992    4.0868 H         1 UNK         0.0806 
    115 H115       28.8402   33.4901    4.9555 H         1 UNK         0.3010 
    116 H116       30.9387   34.0619    4.5073 H         1 UNK         0.0829 
    117 H117       29.8343   35.5091    2.7905 H         1 UNK         0.0813 
    118 H118       31.4460   35.0262    2.2895 H         1 UNK         0.0813 
    119 H119       30.0419   34.2430    1.5812 H         1 UNK         0.0813 
    120 H120       30.6922   31.4177    4.9329 H         1 UNK         0.3038 
    121 H121       31.7302   29.6791    2.9546 H         1 UNK         0.0769 
    122 H122       31.6925   29.3750    6.0110 H         1 UNK         0.0811 
    123 H123       31.8912   28.0705    4.8515 H         1 UNK         0.0811 
    124 H124       30.3728   28.9415    4.9283 H         1 UNK         0.0811 
    125 H125       33.7547   29.1412    2.3756 H         1 UNK         0.3204 
    126 H126       36.0413   30.5938    2.9857 H         1 UNK         0.0748 
    127 H127       37.2141   28.7782    1.7120 H         1 UNK         0.0771 
    128 H128       35.7867   27.7590    1.8309 H         1 UNK         0.0771 
    129 H129       35.7316   29.2635    0.9096 H         1 UNK         0.0771 
    130 H130       34.7486   27.8640    4.7496 H         1 UNK         0.2980 
    131 H131       37.1601   27.2055    6.1866 H         1 UNK         0.0545 
    132 H132       35.5463   30.3108    8.2003 H         1 UNK         0.3459 
    133 H133       35.0747   29.9707    6.5527 H         1 UNK         0.3459 
    134 H134       35.7744   25.7151    7.5230 H         1 UNK         0.0616 
    135 H135       34.3042   26.4654    6.9722 H         1 UNK         0.0616 
    136 H136       33.0175   24.1972    5.3936 H         1 UNK         0.0634 
    137 H137       33.0379   25.9281    5.1810 H         1 UNK         0.0634 
@<TRIPOS>BOND
     1    1    2 1    
     2    1   72 1    
     3    1   73 1    
     4    1   74 1    
     5    2    3 2    
     6    2    4 am   BACKBONE|DICT|INTERRES
     7    4    5 1    
     8    4   75 1    
     9    5    6 1    
    10    5   35 1    
    11    5   76 1    
    12    6    7 1    
    13    6   77 1    
    14    6   78 1    
    15    7    8 1    
    16    8    9 1    
    17    8   79 1    
    18    8   80 1    
    19    9   10 ar   
    20    9   14 ar   
    21   10   11 ar   
    22   10   81 1    
    23   11   12 ar   
    24   11   71 1    
    25   12   13 ar   
    26   12   82 1    
    27   13   14 ar   
    28   13   15 1    
    29   14   83 1    
    30   15   16 1    
    31   15   84 1    
    32   15   85 1    
    33   16   17 1    
    34   17   18 1    
    35   17   86 1    
    36   17   87 1    
    37   18   19 1    
    38   18   37 1    
    39   18   88 1    
    40   19   20 am   BACKBONE|DICT|INTERRES
    41   19   89 1    
    42   20   21 2    
    43   20   22 1    
    44   22   23 1    
    45   22   24 1    
    46   22   90 1    
    47   23   91 1    
    48   23   92 1    
    49   23   93 1    
    50   24   25 am   BACKBONE|DICT|INTERRES
    51   24   94 1    
    52   25   26 2    
    53   25   27 1    
    54   27   28 1    
    55   27   29 1    
    56   27   95 1    
    57   28   96 1    
    58   28   97 1    
    59   28   98 1    
    60   29   30 am   BACKBONE|DICT|INTERRES
    61   29   99 1    
    62   30   31 2    
    63   30   32 1    
    64   32   33 1    
    65   32   34 1    
    66   32  100 1    
    67   33  101 1    
    68   33  102 1    
    69   33  103 1    
    70   34   35 am   BACKBONE|DICT|INTERRES
    71   34  104 1    
    72   35   36 2    
    73   37   38 2    
    74   37   39 am   BACKBONE|DICT|INTERRES
    75   39   40 1    
    76   39  105 1    
    77   40   41 1    
    78   40   42 1    
    79   40  106 1    
    80   41  107 1    
    81   41  108 1    
    82   41  109 1    
    83   42   43 2    
    84   42   44 am   BACKBONE|DICT|INTERRES
    85   44   45 1    
    86   44  110 1    
    87   45   46 1    
    88   45   47 1    
    89   45  111 1    
    90   46  112 1    
    91   46  113 1    
    92   46  114 1    
    93   47   48 2    
    94   47   49 am   BACKBONE|DICT|INTERRES
    95   49   50 1    
    96   49  115 1    
    97   50   51 1    
    98   50   52 1    
    99   50  116 1    
   100   51  117 1    
   101   51  118 1    
   102   51  119 1    
   103   52   53 2    
   104   52   54 am   BACKBONE|DICT|INTERRES
   105   54   55 1    
   106   54  120 1    
   107   55   56 1    
   108   55   57 1    
   109   55  121 1    
   110   56  122 1    
   111   56  123 1    
   112   56  124 1    
   113   57   58 2    
   114   57   59 am   BACKBONE|DICT|INTERRES
   115   59   60 1    
   116   59  125 1    
   117   60   61 1    
   118   60   62 1    
   119   60  126 1    
   120   61  127 1    
   121   61  128 1    
   122   61  129 1    
   123   62   63 2    
   124   62   64 am   BACKBONE|DICT|INTERRES
   125   64   65 1    
   126   64  130 1    
   127   65   66 1    
   128   65   69 1    
   129   65  131 1    
   130   66   67 am   BACKBONE|DICT|INTERRES
   131   66   68 2    
   132   67  132 1    
   133   67  133 1    
   134   69   70 1    
   135   69  134 1    
   136   69  135 1    
   137   70   71 1    
   138   71  136 1    
   139   71  137 1    
@<TRIPOS>SUBSTRUCTURE
     1 UNK         1 GROUP             0       ****    0 ROOT    
