@<TRIPOS>MOLECULE
3R136
137   139    1
SMALL
USER_CHARGES


@<TRIPOS>ATOM
      1 CA         28.6658   23.5133   -3.7281 C.3       0 UNK        -0.1979 
      2 C          29.5828   22.2917   -3.7512 C.2       0 UNK         0.4864 
      3 O          29.6780   21.6337   -4.7862 O.2       0 UNK        -0.5359 
      4 N          30.2859   21.9510   -2.6605 N.am      1 UNK        -0.4318 
      5 CA         30.2222   22.5603   -1.3282 C.3       1 UNK         0.0824 
      6 C6         31.4309   22.1179   -0.4698 C.3       12 UNK        -0.0944 
      7 S7         31.6922   23.1924    0.9776 S.3       12 UNK        -0.2672 
      8 C8         31.3798   22.0208    2.3317 C.3       12 UNK         0.0333 
      9 C9         31.6318   22.6848    3.6735 C.ar      12 UNK        -0.0807 
     10 C10        32.9209   22.7049    4.2147 C.ar      12 UNK        -0.0894 
     11 C11        33.1692   23.3567    5.4263 C.ar      12 UNK        -0.0804 
     12 C12        32.1138   23.9691    6.1066 C.ar      12 UNK        -0.0824 
     13 C13        30.8269   23.9716    5.5636 C.ar      12 UNK        -0.0762 
     14 C14        30.5857   23.3142    4.3539 C.ar      12 UNK        -0.0782 
     15 C15        29.7183   24.7352    6.2658 C.3       12 UNK         0.0230 
     16 S16        29.8107   26.5073    5.8622 S.3       12 UNK        -0.2608 
     17 C17        28.9565   26.5449    4.2478 C.3       12 UNK        -0.0989 
     18 CA         29.1467   27.8719    3.4750 C.3       5 UNK         0.0716 
     19 N          28.5415   27.7930    2.1437 N.am      5 UNK        -0.4135 
     20 C          28.5226   28.7733    1.2252 C.2       4 UNK         0.5031 
     21 O          29.1067   29.8503    1.3567 O.2       4 UNK        -0.5229 
     22 CA         27.6997   28.5321   -0.0569 C.3       4 UNK         0.0329 
     23 CB         28.6245   28.1209   -1.2137 C.3       4 UNK        -0.2001 
     24 N          26.6493   27.5215    0.0999 N.am      4 UNK        -0.4303 
     25 C          25.5987   27.6158    0.9280 C.2       3 UNK         0.5044 
     26 O          25.3039   28.6443    1.5352 O.2       3 UNK        -0.5152 
     27 CA         24.7428   26.3515    1.1481 C.3       3 UNK         0.0319 
     28 CB         23.3457   26.5366    0.5322 C.3       3 UNK        -0.2001 
     29 N          25.3120   25.0898    0.6526 N.am      3 UNK        -0.4354 
     30 C          26.4792   24.5280    1.0027 C.2       2 UNK         0.4964 
     31 O          27.2980   25.0639    1.7525 O.2       2 UNK        -0.5047 
     32 CA         26.8136   23.1624    0.3787 C.3       2 UNK         0.0288 
     33 CB         25.7749   22.6799   -0.6667 C.3       2 UNK        -0.2113 
     34 N          28.1490   23.2473   -0.2109 N.am      2 UNK        -0.4145 
     35 C          28.8788   22.2157   -0.6524 C.2       1 UNK         0.5006 
     36 O          28.5323   21.0350   -0.5663 O.2       1 UNK        -0.5103 
     37 C          28.5917   29.0804    4.2589 C.2       5 UNK         0.5055 
     38 O          27.3856   29.1503    4.5031 O.2       5 UNK        -0.5220 
     39 N          29.4861   30.0194    4.5897 N.am      6 UNK        -0.4450 
     40 CA         29.2837   31.3005    5.2783 C.3       6 UNK         0.0367 
     41 CB         28.6117   31.1157    6.6526 C.3       6 UNK        -0.1929 
     42 C          28.5618   32.3676    4.4350 C.2       6 UNK         0.5070 
     43 O          28.8384   33.5525    4.6215 O.2       6 UNK        -0.5237 
     44 N          27.6765   31.9531    3.5193 N.am      7 UNK        -0.4739 
     45 CA         26.9739   32.8217    2.5731 C.3       7 UNK         0.0276 
     46 CB         25.8538   32.0302    1.8809 C.3       7 UNK        -0.1927 
     47 C          27.9217   33.4450    1.5358 C.2       7 UNK         0.5013 
     48 O          27.8340   34.6481    1.2862 O.2       7 UNK        -0.5193 
     49 N          28.8141   32.6221    0.9696 N.am      8 UNK        -0.4253 
     50 CA         29.8869   33.0523    0.0754 C.3       8 UNK         0.0242 
     51 CB         30.0621   32.0317   -1.0626 C.3       8 UNK        -0.2000 
     52 C          31.1890   33.2242    0.8673 C.2       8 UNK         0.4948 
     53 O          31.8139   34.2819    0.7781 O.2       8 UNK        -0.5275 
     54 N          31.5647   32.1953    1.6378 N.am      9 UNK        -0.4246 
     55 CA         32.7600   32.1489    2.4773 C.3       9 UNK         0.0261 
     56 CB         34.0240   32.0058    1.6058 C.3       9 UNK        -0.1959 
     57 C          32.6400   30.9562    3.4285 C.2       9 UNK         0.5033 
     58 O          31.8755   30.0273    3.1495 O.2       9 UNK        -0.5390 
     59 N          33.4100   30.9693    4.5233 N.am      10 UNK        -0.4215 
     60 CA         33.5506   29.8282    5.4327 C.3       10 UNK         0.0240 
     61 CB         34.3762   30.2421    6.6619 C.3       10 UNK        -0.1982 
     62 C          34.2017   28.6462    4.6940 C.2       10 UNK         0.4970 
     63 O          35.3115   28.8001    4.1793 O.2       10 UNK        -0.4916 
     64 N          33.4726   27.5272    4.6118 N.am      11 UNK        -0.4279 
     65 CA         33.7941   26.3549    3.7787 C.3       11 UNK         0.1003 
     66 C          33.7204   26.6237    2.2425 C.2       11 UNK         0.5709 
     67 N          33.0504   27.6748    1.7798 N.am      11 UNK        -0.7358 
     68 O          34.2632   25.8604    1.4476 O.2       11 UNK        -0.4999 
     69 C69        35.1049   25.6187    4.2011 C.3       12 UNK        -0.0954 
     70 S70        35.1737   25.1884    5.9758 S.3       12 UNK        -0.2268 
     71 C71        34.5858   23.4619    5.9706 C.3       12 UNK         0.0203 
     72 H72        27.7520   23.2994   -3.1754 H         1 UNK         0.0888 
     73 H73        29.1557   24.3797   -3.2862 H         1 UNK         0.0888 
     74 H74        28.3792   23.7885   -4.7429 H         1 UNK         0.0888 
     75 H75        30.8640   21.1250   -2.7172 H         1 UNK         0.3017 
     76 H76        30.2918   23.6418   -1.4570 H         1 UNK         0.0873 
     77 H77        31.3417   21.0728   -0.1658 H         1 UNK         0.0745 
     78 H78        32.3451   22.1747   -1.0634 H         1 UNK         0.0745 
     79 H79        30.3527   21.6570    2.2711 H         1 UNK         0.0705 
     80 H80        32.0278   21.1498    2.2204 H         1 UNK         0.0705 
     81 H81        33.7354   22.2426    3.6736 H         1 UNK         0.1334 
     82 H82        32.3071   24.4942    7.0324 H         1 UNK         0.1417 
     83 H83        29.5928   23.3199    3.9244 H         1 UNK         0.1562 
     84 H84        29.8147   24.6119    7.3456 H         1 UNK         0.0748 
     85 H85        28.7371   24.3396    5.9982 H         1 UNK         0.0748 
     86 H86        27.8955   26.3402    4.4067 H         1 UNK         0.0940 
     87 H87        29.3343   25.7235    3.6385 H         1 UNK         0.0940 
     88 H88        30.2175   28.0117    3.3183 H         1 UNK         0.0703 
     89 H89        28.0279   26.9406    1.9469 H         1 UNK         0.3081 
     90 H90        27.2195   29.4771   -0.3187 H         1 UNK         0.0719 
     91 H91        29.1267   27.1735   -1.0138 H         1 UNK         0.0809 
     92 H92        29.3999   28.8700   -1.3787 H         1 UNK         0.0809 
     93 H93        28.0722   28.0202   -2.1482 H         1 UNK         0.0809 
     94 H94        26.7910   26.6424   -0.3736 H         1 UNK         0.2990 
     95 H95        24.6256   26.2439    2.2283 H         1 UNK         0.0690 
     96 H96        22.6873   25.7038    0.7801 H         1 UNK         0.0788 
     97 H97        23.3923   26.6183   -0.5545 H         1 UNK         0.0788 
     98 H98        22.8681   27.4436    0.9064 H         1 UNK         0.0788 
     99 H99        24.7305   24.5733    0.0080 H         1 UNK         0.2993 
    100 H100       26.8461   22.4425    1.1992 H         1 UNK         0.0949 
    101 H101       26.0202   21.6893   -1.0490 H         1 UNK         0.0767 
    102 H102       24.7785   22.5960   -0.2308 H         1 UNK         0.0767 
    103 H103       25.7149   23.3525   -1.5234 H         1 UNK         0.0767 
    104 H104       28.5452   24.1772   -0.2295 H         1 UNK         0.3013 
    105 H105       30.4183   29.9036    4.1924 H         1 UNK         0.3121 
    106 H106       30.2877   31.6871    5.4607 H         1 UNK         0.0774 
    107 H107       28.5963   32.0562    7.2047 H         1 UNK         0.0815 
    108 H108       27.5785   30.7802    6.5615 H         1 UNK         0.0815 
    109 H109       29.1490   30.3894    7.2625 H         1 UNK         0.0815 
    110 H110       27.4818   30.9592    3.4726 H         1 UNK         0.2987 
    111 H111       26.5176   33.6363    3.1399 H         1 UNK         0.0949 
    112 H112       26.2486   31.1984    1.2972 H         1 UNK         0.0806 
    113 H113       25.1479   31.6223    2.6047 H         1 UNK         0.0806 
    114 H114       25.2887   32.6676    1.1995 H         1 UNK         0.0806 
    115 H115       28.8192   31.6393    1.2386 H         1 UNK         0.3010 
    116 H116       29.6345   34.0143   -0.3763 H         1 UNK         0.0829 
    117 H117       29.1363   31.9012   -1.6231 H         1 UNK         0.0813 
    118 H118       30.8247   32.3652   -1.7675 H         1 UNK         0.0813 
    119 H119       30.3690   31.0532   -0.6929 H         1 UNK         0.0813 
    120 H120       30.9971   31.3543    1.6779 H         1 UNK         0.3038 
    121 H121       32.8137   33.0652    3.0687 H         1 UNK         0.0769 
    122 H122       34.1581   32.8626    0.9458 H         1 UNK         0.0811 
    123 H123       33.9816   31.1096    0.9852 H         1 UNK         0.0811 
    124 H124       34.9224   31.9333    2.2200 H         1 UNK         0.0811 
    125 H125       34.0384   31.7461    4.6713 H         1 UNK         0.3204 
    126 H126       32.5540   29.5384    5.7737 H         1 UNK         0.0748 
    127 H127       33.8971   31.0562    7.2062 H         1 UNK         0.0771 
    128 H128       34.4836   29.4074    7.3560 H         1 UNK         0.0771 
    129 H129       35.3803   30.5668    6.3855 H         1 UNK         0.0771 
    130 H130       32.5711   27.4959    5.0644 H         1 UNK         0.2980 
    131 H131       32.9687   25.6662    3.9496 H         1 UNK         0.0545 
    132 H132       33.0106   27.8206    0.7848 H         1 UNK         0.3459 
    133 H133       32.6137   28.3458    2.4016 H         1 UNK         0.3459 
    134 H134       35.2298   24.7018    3.6226 H         1 UNK         0.0616 
    135 H135       35.9763   26.2329    3.9713 H         1 UNK         0.0616 
    136 H136       34.6095   23.0754    6.9903 H         1 UNK         0.0634 
    137 H137       35.2771   22.8491    5.3899 H         1 UNK         0.0634 
@<TRIPOS>BOND
     1    1    2 1    
     2    1   72 1    
     3    1   73 1    
     4    1   74 1    
     5    2    3 2    
     6    2    4 am   BACKBONE|DICT|INTERRES
     7    4    5 1    
     8    4   75 1    
     9    5    6 1    
    10    5   35 1    
    11    5   76 1    
    12    6    7 1    
    13    6   77 1    
    14    6   78 1    
    15    7    8 1    
    16    8    9 1    
    17    8   79 1    
    18    8   80 1    
    19    9   10 ar   
    20    9   14 ar   
    21   10   11 ar   
    22   10   81 1    
    23   11   12 ar   
    24   11   71 1    
    25   12   13 ar   
    26   12   82 1    
    27   13   14 ar   
    28   13   15 1    
    29   14   83 1    
    30   15   16 1    
    31   15   84 1    
    32   15   85 1    
    33   16   17 1    
    34   17   18 1    
    35   17   86 1    
    36   17   87 1    
    37   18   19 1    
    38   18   37 1    
    39   18   88 1    
    40   19   20 am   BACKBONE|DICT|INTERRES
    41   19   89 1    
    42   20   21 2    
    43   20   22 1    
    44   22   23 1    
    45   22   24 1    
    46   22   90 1    
    47   23   91 1    
    48   23   92 1    
    49   23   93 1    
    50   24   25 am   BACKBONE|DICT|INTERRES
    51   24   94 1    
    52   25   26 2    
    53   25   27 1    
    54   27   28 1    
    55   27   29 1    
    56   27   95 1    
    57   28   96 1    
    58   28   97 1    
    59   28   98 1    
    60   29   30 am   BACKBONE|DICT|INTERRES
    61   29   99 1    
    62   30   31 2    
    63   30   32 1    
    64   32   33 1    
    65   32   34 1    
    66   32  100 1    
    67   33  101 1    
    68   33  102 1    
    69   33  103 1    
    70   34   35 am   BACKBONE|DICT|INTERRES
    71   34  104 1    
    72   35   36 2    
    73   37   38 2    
    74   37   39 am   BACKBONE|DICT|INTERRES
    75   39   40 1    
    76   39  105 1    
    77   40   41 1    
    78   40   42 1    
    79   40  106 1    
    80   41  107 1    
    81   41  108 1    
    82   41  109 1    
    83   42   43 2    
    84   42   44 am   BACKBONE|DICT|INTERRES
    85   44   45 1    
    86   44  110 1    
    87   45   46 1    
    88   45   47 1    
    89   45  111 1    
    90   46  112 1    
    91   46  113 1    
    92   46  114 1    
    93   47   48 2    
    94   47   49 am   BACKBONE|DICT|INTERRES
    95   49   50 1    
    96   49  115 1    
    97   50   51 1    
    98   50   52 1    
    99   50  116 1    
   100   51  117 1    
   101   51  118 1    
   102   51  119 1    
   103   52   53 2    
   104   52   54 am   BACKBONE|DICT|INTERRES
   105   54   55 1    
   106   54  120 1    
   107   55   56 1    
   108   55   57 1    
   109   55  121 1    
   110   56  122 1    
   111   56  123 1    
   112   56  124 1    
   113   57   58 2    
   114   57   59 am   BACKBONE|DICT|INTERRES
   115   59   60 1    
   116   59  125 1    
   117   60   61 1    
   118   60   62 1    
   119   60  126 1    
   120   61  127 1    
   121   61  128 1    
   122   61  129 1    
   123   62   63 2    
   124   62   64 am   BACKBONE|DICT|INTERRES
   125   64   65 1    
   126   64  130 1    
   127   65   66 1    
   128   65   69 1    
   129   65  131 1    
   130   66   67 am   BACKBONE|DICT|INTERRES
   131   66   68 2    
   132   67  132 1    
   133   67  133 1    
   134   69   70 1    
   135   69  134 1    
   136   69  135 1    
   137   70   71 1    
   138   71  136 1    
   139   71  137 1    
@<TRIPOS>SUBSTRUCTURE
     1 UNK         1 GROUP             0       ****    0 ROOT    
