@<TRIPOS>MOLECULE
3R136
137   139    1
SMALL
USER_CHARGES


@<TRIPOS>ATOM
      1 CA         27.6545   22.8530    2.7031 C.3       0 UNK        -0.1979 
      2 C          28.0243   22.2939    1.3382 C.2       0 UNK         0.4864 
      3 O          28.1896   21.0814    1.1986 O.2       0 UNK        -0.5359 
      4 N          28.1638   23.1699    0.3370 N.am      1 UNK        -0.4318 
      5 CA         28.5722   22.8127   -1.0245 C.3       1 UNK         0.0824 
      6 C6         30.1006   22.5748   -1.1846 C.3       12 UNK        -0.0944 
      7 S7         31.1397   23.8583   -0.3967 S.3       12 UNK        -0.2672 
      8 C8         31.8284   22.9391    1.0186 C.3       12 UNK         0.0333 
      9 C9         32.0529   23.8475    2.2175 C.ar      12 UNK        -0.0807 
     10 C10        33.0047   24.8694    2.1571 C.ar      12 UNK        -0.0894 
     11 C11        33.2013   25.7198    3.2482 C.ar      12 UNK        -0.0804 
     12 C12        32.4534   25.5289    4.4136 C.ar      12 UNK        -0.0824 
     13 C13        31.5211   24.4914    4.4983 C.ar      12 UNK        -0.0762 
     14 C14        31.3190   23.6590    3.3935 C.ar      12 UNK        -0.0782 
     15 C15        30.7637   24.2440    5.7955 C.3       12 UNK         0.0230 
     16 S16        29.0110   24.7200    5.6832 S.3       12 UNK        -0.2608 
     17 C17        29.1147   26.5361    5.5346 C.3       12 UNK        -0.0989 
     18 CA         28.6827   27.0317    4.1336 C.3       5 UNK         0.0716 
     19 N          27.3239   26.5931    3.7909 N.am      5 UNK        -0.4135 
     20 C          26.7932   26.6284    2.5629 C.2       4 UNK         0.5031 
     21 O          27.4036   27.0339    1.5678 O.2       4 UNK        -0.5229 
     22 CA         25.3573   26.0762    2.4346 C.3       4 UNK         0.0329 
     23 CB         24.3719   26.7525    3.4146 C.3       4 UNK        -0.2001 
     24 N          24.8778   26.1339    1.0480 N.am      4 UNK        -0.4303 
     25 C          24.5815   27.2315    0.3362 C.2       3 UNK         0.5044 
     26 O          24.4474   28.3622    0.8073 O.2       3 UNK        -0.5152 
     27 CA         24.5814   27.0246   -1.1809 C.3       3 UNK         0.0319 
     28 CB         23.9910   28.2281   -1.9499 C.3       3 UNK        -0.2001 
     29 N          25.9809   26.7746   -1.5268 N.am      3 UNK        -0.4354 
     30 C          26.4932   26.4941   -2.7288 C.2       2 UNK         0.4964 
     31 O          25.8396   26.4244   -3.7698 O.2       2 UNK        -0.5047 
     32 CA         28.0058   26.2143   -2.7552 C.3       2 UNK         0.0288 
     33 CB         28.8166   27.4691   -2.3841 C.3       2 UNK        -0.2113 
     34 N          28.3956   25.1081   -1.8745 N.am      2 UNK        -0.4145 
     35 C          28.0169   23.8306   -2.0329 C.2       1 UNK         0.5006 
     36 O          27.2600   23.4420   -2.9238 O.2       1 UNK        -0.5103 
     37 C          28.8510   28.5615    4.0349 C.2       5 UNK         0.5055 
     38 O          29.9655   29.0290    3.8003 O.2       5 UNK        -0.5220 
     39 N          27.7540   29.3156    4.2056 N.am      6 UNK        -0.4450 
     40 CA         27.7189   30.7779    4.1203 C.3       6 UNK         0.0367 
     41 CB         26.3324   31.2876    4.5444 C.3       6 UNK        -0.1929 
     42 C          28.0869   31.3033    2.7239 C.2       6 UNK         0.5070 
     43 O          28.8687   32.2475    2.6198 O.2       6 UNK        -0.5237 
     44 N          27.5688   30.6506    1.6735 N.am      7 UNK        -0.4739 
     45 CA         27.8921   30.9587    0.2756 C.3       7 UNK         0.0276 
     46 CB         26.8780   30.2678   -0.6424 C.3       7 UNK        -0.1927 
     47 C          29.3287   30.5663   -0.1102 C.2       7 UNK         0.5013 
     48 O          29.9017   31.1788   -1.0108 O.2       7 UNK        -0.5193 
     49 N          29.8937   29.5833    0.6037 N.am      8 UNK        -0.4253 
     50 CA         31.2985   29.1806    0.5199 C.3       8 UNK         0.0242 
     51 CB         31.4056   27.6892    0.8756 C.3       8 UNK        -0.2000 
     52 C          32.2231   30.0430    1.4081 C.2       8 UNK         0.4948 
     53 O          33.4206   29.7627    1.4669 O.2       8 UNK        -0.5275 
     54 N          31.6655   31.0688    2.0734 N.am      9 UNK        -0.4246 
     55 CA         32.3226   32.0500    2.9427 C.3       9 UNK         0.0261 
     56 CB         33.3598   32.8827    2.1580 C.3       9 UNK        -0.1959 
     57 C          32.8900   31.4557    4.2455 C.2       9 UNK         0.5033 
     58 O          33.8779   31.9788    4.7655 O.2       9 UNK        -0.5390 
     59 N          32.2603   30.3885    4.7620 N.am      10 UNK        -0.4215 
     60 CA         32.5219   29.6769    6.0256 C.3       10 UNK         0.0240 
     61 CB         32.2978   30.5996    7.2390 C.3       10 UNK        -0.1982 
     62 C          33.8783   28.9500    6.1287 C.2       10 UNK         0.4970 
     63 O          33.9185   27.8795    6.7351 O.2       10 UNK        -0.4916 
     64 N          34.9297   29.5205    5.5272 N.am      11 UNK        -0.4279 
     65 CA         36.3079   29.0206    5.4026 C.3       11 UNK         0.1003 
     66 C          36.9534   28.5168    6.7308 C.2       11 UNK         0.5709 
     67 N          37.8152   27.5087    6.6950 N.am      11 UNK        -0.7358 
     68 O          36.7329   29.0913    7.7959 O.2       11 UNK        -0.4999 
     69 C69        36.5124   28.1269    4.1401 C.3       12 UNK        -0.0954 
     70 S70        35.6797   26.5035    4.1780 S.3       12 UNK        -0.2268 
     71 C71        34.2086   26.8545    3.1682 C.3       12 UNK         0.0203 
     72 H72        27.9951   23.8812    2.8163 H         1 UNK         0.0888 
     73 H73        26.5752   22.8201    2.8462 H         1 UNK         0.0888 
     74 H74        28.1182   22.2635    3.4937 H         1 UNK         0.0888 
     75 H75        28.0026   24.1526    0.5032 H         1 UNK         0.3017 
     76 H76        28.0785   21.8704   -1.2748 H         1 UNK         0.0873 
     77 H77        30.3741   22.5087   -2.2396 H         1 UNK         0.0745 
     78 H78        30.3558   21.5990   -0.7695 H         1 UNK         0.0745 
     79 H79        32.7722   22.4789    0.7233 H         1 UNK         0.0705 
     80 H80        31.1599   22.1223    1.2941 H         1 UNK         0.0705 
     81 H81        33.5772   25.0122    1.2508 H         1 UNK         0.1334 
     82 H82        32.6160   26.1778    5.2624 H         1 UNK         0.1417 
     83 H83        30.5956   22.8581    3.4575 H         1 UNK         0.1562 
     84 H84        31.2299   24.7747    6.6274 H         1 UNK         0.0748 
     85 H85        30.8216   23.1835    6.0449 H         1 UNK         0.0748 
     86 H86        30.1330   26.8595    5.7590 H         1 UNK         0.0940 
     87 H87        28.4845   26.9747    6.3109 H         1 UNK         0.0940 
     88 H88        29.3636   26.5929    3.4004 H         1 UNK         0.0703 
     89 H89        26.7849   26.2005    4.5493 H         1 UNK         0.3081 
     90 H90        25.4036   25.0168    2.6885 H         1 UNK         0.0719 
     91 H91        24.4032   27.8404    3.3456 H         1 UNK         0.0809 
     92 H92        23.3461   26.4375    3.2226 H         1 UNK         0.0809 
     93 H93        24.5947   26.4887    4.4487 H         1 UNK         0.0809 
     94 H94        24.9637   25.2677    0.5350 H         1 UNK         0.2990 
     95 H95        23.9919   26.1346   -1.4094 H         1 UNK         0.0690 
     96 H96        23.8793   28.0119   -3.0119 H         1 UNK         0.0788 
     97 H97        24.6120   29.1174   -1.8560 H         1 UNK         0.0788 
     98 H98        22.9992   28.4811   -1.5730 H         1 UNK         0.0788 
     99 H99        26.6149   26.8085   -0.7366 H         1 UNK         0.2993 
    100 H100       28.2666   25.9343   -3.7784 H         1 UNK         0.0949 
    101 H101       29.8816   27.3174   -2.5611 H         1 UNK         0.0767 
    102 H102       28.5097   28.3287   -2.9817 H         1 UNK         0.0767 
    103 H103       28.6923   27.7371   -1.3349 H         1 UNK         0.0767 
    104 H104       29.0716   25.3179   -1.1534 H         1 UNK         0.3013 
    105 H105       26.8804   28.8510    4.4035 H         1 UNK         0.3121 
    106 H106       28.4570   31.1690    4.8242 H         1 UNK         0.0774 
    107 H107       26.2884   32.3768    4.5010 H         1 UNK         0.0815 
    108 H108       25.5424   30.9040    3.8973 H         1 UNK         0.0815 
    109 H109       26.0988   30.9973    5.5689 H         1 UNK         0.0815 
    110 H110       26.9420   29.8742    1.8372 H         1 UNK         0.2987 
    111 H111       27.8012   32.0381    0.1331 H         1 UNK         0.0949 
    112 H112       26.8880   29.1883   -0.5006 H         1 UNK         0.0806 
    113 H113       25.8662   30.6220   -0.4451 H         1 UNK         0.0806 
    114 H114       27.0943   30.4652   -1.6932 H         1 UNK         0.0806 
    115 H115       29.3442   29.1453    1.3304 H         1 UNK         0.3010 
    116 H116       31.6389   29.3031   -0.5104 H         1 UNK         0.0829 
    117 H117       30.7271   27.0819    0.2767 H         1 UNK         0.0813 
    118 H118       32.4141   27.3216    0.6867 H         1 UNK         0.0813 
    119 H119       31.1825   27.5044    1.9263 H         1 UNK         0.0813 
    120 H120       30.6646   31.1973    1.9836 H         1 UNK         0.3038 
    121 H121       31.5343   32.7349    3.2577 H         1 UNK         0.0769 
    122 H122       33.7255   33.7178    2.7569 H         1 UNK         0.0811 
    123 H123       32.9268   33.3032    1.2505 H         1 UNK         0.0811 
    124 H124       34.2266   32.2860    1.8724 H         1 UNK         0.0811 
    125 H125       31.4751   30.0084    4.2334 H         1 UNK         0.3204 
    126 H126       31.7599   28.8971    6.0692 H         1 UNK         0.0748 
    127 H127       32.3933   30.0439    8.1729 H         1 UNK         0.0771 
    128 H128       33.0229   31.4133    7.2717 H         1 UNK         0.0771 
    129 H129       31.3002   31.0385    7.2236 H         1 UNK         0.0771 
    130 H130       34.7627   30.4431    5.1319 H         1 UNK         0.2980 
    131 H131       36.8775   29.9276    5.1981 H         1 UNK         0.0545 
    132 H132       37.9957   27.0205    5.8319 H         1 UNK         0.3459 
    133 H133       38.2523   27.2030    7.5500 H         1 UNK         0.3459 
    134 H134       36.1758   28.6710    3.2560 H         1 UNK         0.0616 
    135 H135       37.5764   27.9538    3.9723 H         1 UNK         0.0616 
    136 H136       34.5182   27.0286    2.1366 H         1 UNK         0.0634 
    137 H137       33.7337   27.7768    3.5028 H         1 UNK         0.0634 
@<TRIPOS>BOND
     1    1    2 1    
     2    1   72 1    
     3    1   73 1    
     4    1   74 1    
     5    2    3 2    
     6    2    4 am   BACKBONE|DICT|INTERRES
     7    4    5 1    
     8    4   75 1    
     9    5    6 1    
    10    5   35 1    
    11    5   76 1    
    12    6    7 1    
    13    6   77 1    
    14    6   78 1    
    15    7    8 1    
    16    8    9 1    
    17    8   79 1    
    18    8   80 1    
    19    9   10 ar   
    20    9   14 ar   
    21   10   11 ar   
    22   10   81 1    
    23   11   12 ar   
    24   11   71 1    
    25   12   13 ar   
    26   12   82 1    
    27   13   14 ar   
    28   13   15 1    
    29   14   83 1    
    30   15   16 1    
    31   15   84 1    
    32   15   85 1    
    33   16   17 1    
    34   17   18 1    
    35   17   86 1    
    36   17   87 1    
    37   18   19 1    
    38   18   37 1    
    39   18   88 1    
    40   19   20 am   BACKBONE|DICT|INTERRES
    41   19   89 1    
    42   20   21 2    
    43   20   22 1    
    44   22   23 1    
    45   22   24 1    
    46   22   90 1    
    47   23   91 1    
    48   23   92 1    
    49   23   93 1    
    50   24   25 am   BACKBONE|DICT|INTERRES
    51   24   94 1    
    52   25   26 2    
    53   25   27 1    
    54   27   28 1    
    55   27   29 1    
    56   27   95 1    
    57   28   96 1    
    58   28   97 1    
    59   28   98 1    
    60   29   30 am   BACKBONE|DICT|INTERRES
    61   29   99 1    
    62   30   31 2    
    63   30   32 1    
    64   32   33 1    
    65   32   34 1    
    66   32  100 1    
    67   33  101 1    
    68   33  102 1    
    69   33  103 1    
    70   34   35 am   BACKBONE|DICT|INTERRES
    71   34  104 1    
    72   35   36 2    
    73   37   38 2    
    74   37   39 am   BACKBONE|DICT|INTERRES
    75   39   40 1    
    76   39  105 1    
    77   40   41 1    
    78   40   42 1    
    79   40  106 1    
    80   41  107 1    
    81   41  108 1    
    82   41  109 1    
    83   42   43 2    
    84   42   44 am   BACKBONE|DICT|INTERRES
    85   44   45 1    
    86   44  110 1    
    87   45   46 1    
    88   45   47 1    
    89   45  111 1    
    90   46  112 1    
    91   46  113 1    
    92   46  114 1    
    93   47   48 2    
    94   47   49 am   BACKBONE|DICT|INTERRES
    95   49   50 1    
    96   49  115 1    
    97   50   51 1    
    98   50   52 1    
    99   50  116 1    
   100   51  117 1    
   101   51  118 1    
   102   51  119 1    
   103   52   53 2    
   104   52   54 am   BACKBONE|DICT|INTERRES
   105   54   55 1    
   106   54  120 1    
   107   55   56 1    
   108   55   57 1    
   109   55  121 1    
   110   56  122 1    
   111   56  123 1    
   112   56  124 1    
   113   57   58 2    
   114   57   59 am   BACKBONE|DICT|INTERRES
   115   59   60 1    
   116   59  125 1    
   117   60   61 1    
   118   60   62 1    
   119   60  126 1    
   120   61  127 1    
   121   61  128 1    
   122   61  129 1    
   123   62   63 2    
   124   62   64 am   BACKBONE|DICT|INTERRES
   125   64   65 1    
   126   64  130 1    
   127   65   66 1    
   128   65   69 1    
   129   65  131 1    
   130   66   67 am   BACKBONE|DICT|INTERRES
   131   66   68 2    
   132   67  132 1    
   133   67  133 1    
   134   69   70 1    
   135   69  134 1    
   136   69  135 1    
   137   70   71 1    
   138   71  136 1    
   139   71  137 1    
@<TRIPOS>SUBSTRUCTURE
     1 UNK         1 GROUP             0       ****    0 ROOT    
