@<TRIPOS>MOLECULE
3R136
137   139    1
SMALL
USER_CHARGES


@<TRIPOS>ATOM
      1 CA         32.9267   28.1307    0.5880 C.3       0 UNK        -0.1979 
      2 C          31.4894   27.7315    0.3047 C.2       0 UNK         0.4864 
      3 O          30.6610   28.5848   -0.0188 O.2       0 UNK        -0.5359 
      4 N          31.1762   26.4379    0.4213 N.am      1 UNK        -0.4318 
      5 CA         29.8767   25.8417    0.1033 C.3       1 UNK         0.0824 
      6 C6         29.5959   24.5479    0.9180 C.3       12 UNK        -0.0944 
      7 S7         31.0535   23.4649    1.1512 S.3       12 UNK        -0.2672 
      8 C8         30.5939   22.4930    2.6283 C.3       12 UNK         0.0333 
      9 C9         30.1582   23.3370    3.8243 C.ar      12 UNK        -0.0807 
     10 C10        30.9102   24.4390    4.2481 C.ar      12 UNK        -0.0894 
     11 C11        30.4937   25.2108    5.3384 C.ar      12 UNK        -0.0804 
     12 C12        29.3117   24.8727    6.0060 C.ar      12 UNK        -0.0824 
     13 C13        28.5530   23.7717    5.5968 C.ar      12 UNK        -0.0762 
     14 C14        28.9872   23.0046    4.5118 C.ar      12 UNK        -0.0782 
     15 C15        27.2680   23.4035    6.3286 C.3       12 UNK         0.0230 
     16 S16        25.8021   23.4896    5.2468 S.3       12 UNK        -0.2608 
     17 C17        25.6935   25.2784    4.8950 C.3       12 UNK        -0.0989 
     18 CA         26.3621   25.6700    3.5472 C.3       5 UNK         0.0716 
     19 N          25.8602   24.9076    2.3988 N.am      5 UNK        -0.4135 
     20 C          24.6445   24.9814    1.8406 C.2       4 UNK         0.5031 
     21 O          23.7358   25.7177    2.2301 O.2       4 UNK        -0.5229 
     22 CA         24.4330   24.0896    0.6008 C.3       4 UNK         0.0329 
     23 CB         23.0488   23.4173    0.6272 C.3       4 UNK        -0.2001 
     24 N          24.5962   24.7984   -0.6759 N.am      4 UNK        -0.4303 
     25 C          25.6208   25.5865   -1.0302 C.2       3 UNK         0.5044 
     26 O          26.5605   25.8841   -0.2822 O.2       3 UNK        -0.5152 
     27 CA         25.6049   26.1275   -2.4699 C.3       3 UNK         0.0319 
     28 CB         24.5037   27.1820   -2.6745 C.3       3 UNK        -0.2001 
     29 N          26.9103   26.7311   -2.7025 N.am      3 UNK        -0.4354 
     30 C          27.7238   26.5187   -3.7411 C.2       2 UNK         0.4964 
     31 O          27.3770   25.9935   -4.7994 O.2       2 UNK        -0.5047 
     32 CA         29.1964   26.9262   -3.5293 C.3       2 UNK         0.0288 
     33 CB         29.4398   28.3607   -4.0249 C.3       2 UNK        -0.2113 
     34 N          29.6066   26.8265   -2.1219 N.am      2 UNK        -0.4145 
     35 C          29.6916   25.6840   -1.4220 C.2       1 UNK         0.5006 
     36 O          29.6087   24.5658   -1.9339 O.2       1 UNK        -0.5103 
     37 C          26.3690   27.1972    3.3002 C.2       5 UNK         0.5055 
     38 O          26.1187   27.9642    4.2321 O.2       5 UNK        -0.5220 
     39 N          26.6668   27.6192    2.0582 N.am      6 UNK        -0.4450 
     40 CA         26.7717   29.0310    1.6607 C.3       6 UNK         0.0367 
     41 CB         26.9895   29.1352    0.1431 C.3       6 UNK        -0.1929 
     42 C          27.8721   29.8051    2.4087 C.2       6 UNK         0.5070 
     43 O          27.6692   30.9767    2.7284 O.2       6 UNK        -0.5237 
     44 N          28.9938   29.1221    2.6869 N.am      7 UNK        -0.4739 
     45 CA         30.1398   29.5773    3.4829 C.3       7 UNK         0.0276 
     46 CB         29.7404   29.6617    4.9713 C.3       7 UNK        -0.1927 
     47 C          30.7836   30.8769    2.9589 C.2       7 UNK         0.5013 
     48 O          31.1089   31.7665    3.7503 O.2       7 UNK        -0.5193 
     49 N          30.9622   30.9627    1.6323 N.am      8 UNK        -0.4253 
     50 CA         31.6330   32.0634    0.9377 C.3       8 UNK         0.0242 
     51 CB         31.4846   31.8660   -0.5811 C.3       8 UNK        -0.2000 
     52 C          33.1112   32.1516    1.3577 C.2       8 UNK         0.4948 
     53 O          33.9175   31.3323    0.9155 O.2       8 UNK        -0.5275 
     54 N          33.4131   33.1163    2.2388 N.am      9 UNK        -0.4246 
     55 CA         34.6769   33.2816    2.9691 C.3       9 UNK         0.0261 
     56 CB         35.8573   33.5626    2.0128 C.3       9 UNK        -0.1959 
     57 C          34.9468   32.1234    3.9548 C.2       9 UNK         0.5033 
     58 O          36.0955   31.7013    4.1055 O.2       9 UNK        -0.5390 
     59 N          33.8807   31.6565    4.6245 N.am      10 UNK        -0.4215 
     60 CA         33.8473   30.5704    5.6101 C.3       10 UNK         0.0240 
     61 CB         34.7097   30.9062    6.8502 C.3       10 UNK        -0.1982 
     62 C          34.1472   29.2006    4.9695 C.2       10 UNK         0.4970 
     63 O          33.7195   28.9572    3.8409 O.2       10 UNK        -0.4916 
     64 N          34.8302   28.3218    5.7067 N.am      11 UNK        -0.4279 
     65 CA         35.2272   26.9672    5.3069 C.3       11 UNK         0.1003 
     66 C          36.3195   26.4166    6.2623 C.2       11 UNK         0.5709 
     67 N          36.9597   25.3112    5.9056 N.am      11 UNK        -0.7358 
     68 O          36.5980   26.9812    7.3203 O.2       11 UNK        -0.4999 
     69 C69        34.0261   25.9912    5.1245 C.3       12 UNK        -0.0954 
     70 S70        32.8870   25.9293    6.5551 S.3       12 UNK        -0.2268 
     71 C71        31.3066   26.4170    5.7928 C.3       12 UNK         0.0203 
     72 H72        33.3782   28.5682   -0.3018 H         1 UNK         0.0888 
     73 H73        32.9558   28.8760    1.3797 H         1 UNK         0.0888 
     74 H74        33.5352   27.2828    0.9015 H         1 UNK         0.0888 
     75 H75        31.8888   25.7682    0.6782 H         1 UNK         0.3017 
     76 H76        29.1065   26.5523    0.4083 H         1 UNK         0.0873 
     77 H77        28.7799   23.9659    0.4850 H         1 UNK         0.0745 
     78 H78        29.2336   24.8523    1.8990 H         1 UNK         0.0745 
     79 H79        31.4473   21.8819    2.9241 H         1 UNK         0.0705 
     80 H80        29.8034   21.7978    2.3412 H         1 UNK         0.0705 
     81 H81        31.8188   24.6965    3.7234 H         1 UNK         0.1334 
     82 H82        28.9822   25.4671    6.8473 H         1 UNK         0.1417 
     83 H83        28.3991   22.1526    4.1977 H         1 UNK         0.1562 
     84 H84        27.1115   24.0443    7.1978 H         1 UNK         0.0748 
     85 H85        27.3608   22.3867    6.7125 H         1 UNK         0.0748 
     86 H86        26.1466   25.8241    5.7249 H         1 UNK         0.0940 
     87 H87        24.6395   25.5616    4.8900 H         1 UNK         0.0940 
     88 H88        27.4170   25.4069    3.6245 H         1 UNK         0.0703 
     89 H89        26.5319   24.2895    1.9688 H         1 UNK         0.3081 
     90 H90        25.1817   23.2950    0.6231 H         1 UNK         0.0719 
     91 H91        22.2434   24.1465    0.5293 H         1 UNK         0.0809 
     92 H92        22.9432   22.6897   -0.1777 H         1 UNK         0.0809 
     93 H93        22.8921   22.8840    1.5660 H         1 UNK         0.0809 
     94 H94        23.8688   24.6402   -1.3580 H         1 UNK         0.2990 
     95 H95        25.4487   25.2890   -3.1519 H         1 UNK         0.0690 
     96 H96        24.5445   27.6013   -3.6800 H         1 UNK         0.0788 
     97 H97        24.5886   28.0069   -1.9675 H         1 UNK         0.0788 
     98 H98        23.5121   26.7462   -2.5481 H         1 UNK         0.0788 
     99 H99        27.3271   27.0979   -1.8582 H         1 UNK         0.2993 
    100 H100       29.8167   26.2437   -4.1143 H         1 UNK         0.0949 
    101 H101       30.4909   28.6371   -3.9378 H         1 UNK         0.0767 
    102 H102       29.1643   28.4623   -5.0756 H         1 UNK         0.0767 
    103 H103       28.8540   29.0883   -3.4613 H         1 UNK         0.0767 
    104 H104       29.7773   27.6947   -1.6231 H         1 UNK         0.3013 
    105 H105       26.7635   26.9272    1.3195 H         1 UNK         0.3121 
    106 H106       25.8187   29.5076    1.8998 H         1 UNK         0.0774 
    107 H107       27.0625   30.1778   -0.1697 H         1 UNK         0.0815 
    108 H108       27.9069   28.6387   -0.1709 H         1 UNK         0.0815 
    109 H109       26.1580   28.6947   -0.4033 H         1 UNK         0.0815 
    110 H110       29.0546   28.1785    2.3349 H         1 UNK         0.2987 
    111 H111       30.9071   28.8081    3.3870 H         1 UNK         0.0949 
    112 H112       29.0331   30.4721    5.1517 H         1 UNK         0.0806 
    113 H113       29.2765   28.7358    5.3112 H         1 UNK         0.0806 
    114 H114       30.6087   29.8404    5.6042 H         1 UNK         0.0806 
    115 H115       30.6941   30.1678    1.0570 H         1 UNK         0.3010 
    116 H116       31.1274   32.9926    1.2084 H         1 UNK         0.0829 
    117 H117       30.4359   31.8477   -0.8781 H         1 UNK         0.0813 
    118 H118       31.9649   32.6779   -1.1285 H         1 UNK         0.0813 
    119 H119       31.9407   30.9329   -0.9148 H         1 UNK         0.0813 
    120 H120       32.6599   33.7183    2.5445 H         1 UNK         0.3038 
    121 H121       34.5487   34.1706    3.5886 H         1 UNK         0.0769 
    122 H122       36.7514   33.8418    2.5714 H         1 UNK         0.0811 
    123 H123       35.6315   34.3836    1.3326 H         1 UNK         0.0811 
    124 H124       36.1133   32.6889    1.4130 H         1 UNK         0.0811 
    125 H125       32.9632   31.9980    4.3489 H         1 UNK         0.3204 
    126 H126       32.8126   30.5168    5.9476 H         1 UNK         0.0748 
    127 H127       34.5194   30.2098    7.6677 H         1 UNK         0.0771 
    128 H128       35.7773   30.8750    6.6294 H         1 UNK         0.0771 
    129 H129       34.4806   31.9029    7.2279 H         1 UNK         0.0771 
    130 H130       35.1649   28.5880    6.6232 H         1 UNK         0.2980 
    131 H131       35.7206   27.0706    4.3387 H         1 UNK         0.0545 
    132 H132       36.7466   24.8391    5.0409 H         1 UNK         0.3459 
    133 H133       37.6722   24.9414    6.5153 H         1 UNK         0.3459 
    134 H134       33.4737   26.2807    4.2308 H         1 UNK         0.0616 
    135 H135       34.3729   24.9768    4.9219 H         1 UNK         0.0616 
    136 H136       31.4795   27.0886    4.9522 H         1 UNK         0.0634 
    137 H137       30.7451   26.9962    6.5270 H         1 UNK         0.0634 
@<TRIPOS>BOND
     1    1    2 1    
     2    1   72 1    
     3    1   73 1    
     4    1   74 1    
     5    2    3 2    
     6    2    4 am   BACKBONE|DICT|INTERRES
     7    4    5 1    
     8    4   75 1    
     9    5    6 1    
    10    5   35 1    
    11    5   76 1    
    12    6    7 1    
    13    6   77 1    
    14    6   78 1    
    15    7    8 1    
    16    8    9 1    
    17    8   79 1    
    18    8   80 1    
    19    9   10 ar   
    20    9   14 ar   
    21   10   11 ar   
    22   10   81 1    
    23   11   12 ar   
    24   11   71 1    
    25   12   13 ar   
    26   12   82 1    
    27   13   14 ar   
    28   13   15 1    
    29   14   83 1    
    30   15   16 1    
    31   15   84 1    
    32   15   85 1    
    33   16   17 1    
    34   17   18 1    
    35   17   86 1    
    36   17   87 1    
    37   18   19 1    
    38   18   37 1    
    39   18   88 1    
    40   19   20 am   BACKBONE|DICT|INTERRES
    41   19   89 1    
    42   20   21 2    
    43   20   22 1    
    44   22   23 1    
    45   22   24 1    
    46   22   90 1    
    47   23   91 1    
    48   23   92 1    
    49   23   93 1    
    50   24   25 am   BACKBONE|DICT|INTERRES
    51   24   94 1    
    52   25   26 2    
    53   25   27 1    
    54   27   28 1    
    55   27   29 1    
    56   27   95 1    
    57   28   96 1    
    58   28   97 1    
    59   28   98 1    
    60   29   30 am   BACKBONE|DICT|INTERRES
    61   29   99 1    
    62   30   31 2    
    63   30   32 1    
    64   32   33 1    
    65   32   34 1    
    66   32  100 1    
    67   33  101 1    
    68   33  102 1    
    69   33  103 1    
    70   34   35 am   BACKBONE|DICT|INTERRES
    71   34  104 1    
    72   35   36 2    
    73   37   38 2    
    74   37   39 am   BACKBONE|DICT|INTERRES
    75   39   40 1    
    76   39  105 1    
    77   40   41 1    
    78   40   42 1    
    79   40  106 1    
    80   41  107 1    
    81   41  108 1    
    82   41  109 1    
    83   42   43 2    
    84   42   44 am   BACKBONE|DICT|INTERRES
    85   44   45 1    
    86   44  110 1    
    87   45   46 1    
    88   45   47 1    
    89   45  111 1    
    90   46  112 1    
    91   46  113 1    
    92   46  114 1    
    93   47   48 2    
    94   47   49 am   BACKBONE|DICT|INTERRES
    95   49   50 1    
    96   49  115 1    
    97   50   51 1    
    98   50   52 1    
    99   50  116 1    
   100   51  117 1    
   101   51  118 1    
   102   51  119 1    
   103   52   53 2    
   104   52   54 am   BACKBONE|DICT|INTERRES
   105   54   55 1    
   106   54  120 1    
   107   55   56 1    
   108   55   57 1    
   109   55  121 1    
   110   56  122 1    
   111   56  123 1    
   112   56  124 1    
   113   57   58 2    
   114   57   59 am   BACKBONE|DICT|INTERRES
   115   59   60 1    
   116   59  125 1    
   117   60   61 1    
   118   60   62 1    
   119   60  126 1    
   120   61  127 1    
   121   61  128 1    
   122   61  129 1    
   123   62   63 2    
   124   62   64 am   BACKBONE|DICT|INTERRES
   125   64   65 1    
   126   64  130 1    
   127   65   66 1    
   128   65   69 1    
   129   65  131 1    
   130   66   67 am   BACKBONE|DICT|INTERRES
   131   66   68 2    
   132   67  132 1    
   133   67  133 1    
   134   69   70 1    
   135   69  134 1    
   136   69  135 1    
   137   70   71 1    
   138   71  136 1    
   139   71  137 1    
@<TRIPOS>SUBSTRUCTURE
     1 UNK         1 GROUP             0       ****    0 ROOT    
