@<TRIPOS>MOLECULE
3R136
137   139    1
SMALL
USER_CHARGES


@<TRIPOS>ATOM
      1 CA         29.5262   26.8117    4.3620 C.3       0 UNK        -0.1979 
      2 C          28.4949   25.7489    4.0406 C.2       0 UNK         0.4864 
      3 O          27.4395   25.7139    4.6742 O.2       0 UNK        -0.5359 
      4 N          28.7783   24.8972    3.0476 N.am      1 UNK        -0.4318 
      5 CA         27.8327   23.9095    2.5259 C.3       1 UNK         0.0824 
      6 C6         28.5212   22.8202    1.6678 C.3       12 UNK        -0.0944 
      7 S7         29.7507   21.8748    2.6329 S.3       12 UNK        -0.2672 
      8 C8         31.3002   22.1703    1.7179 C.3       12 UNK         0.0333 
      9 C9         31.7026   23.6392    1.7052 C.ar      12 UNK        -0.0807 
     10 C10        32.1845   24.2504    2.8690 C.ar      12 UNK        -0.0894 
     11 C11        32.5434   25.6018    2.8627 C.ar      12 UNK        -0.0804 
     12 C12        32.4289   26.3277    1.6759 C.ar      12 UNK        -0.0824 
     13 C13        31.9516   25.7359    0.5028 C.ar      12 UNK        -0.0762 
     14 C14        31.5963   24.3845    0.5253 C.ar      12 UNK        -0.0782 
     15 C15        31.8200   26.5478   -0.7857 C.3       12 UNK         0.0230 
     16 S16        31.2011   28.2345   -0.4710 S.3       12 UNK        -0.2608 
     17 C17        30.3209   28.6900   -2.0047 C.3       12 UNK        -0.0989 
     18 CA         28.7918   28.4211   -1.9667 C.3       5 UNK         0.0716 
     19 N          28.5155   26.9891   -2.0933 N.am      5 UNK        -0.4135 
     20 C          27.3573   26.4506   -2.4922 C.2       4 UNK         0.5031 
     21 O          26.3408   27.1087   -2.7200 O.2       4 UNK        -0.5229 
     22 CA         27.3381   24.9285   -2.7193 C.3       4 UNK         0.0329 
     23 CB         28.6411   24.2069   -2.3117 C.3       4 UNK        -0.2001 
     24 N          26.2289   24.3540   -1.9678 N.am      4 UNK        -0.4303 
     25 C          25.1654   23.7304   -2.4923 C.2       3 UNK         0.5044 
     26 O          25.0056   23.5463   -3.7001 O.2       3 UNK        -0.5152 
     27 CA         24.1016   23.1907   -1.5140 C.3       3 UNK         0.0319 
     28 CB         24.1323   21.6532   -1.4812 C.3       3 UNK        -0.2001 
     29 N          24.2598   23.6923   -0.1470 N.am      3 UNK        -0.4354 
     30 C          23.9376   24.9284    0.2576 C.2       2 UNK         0.4964 
     31 O          23.3732   25.7583   -0.4547 O.2       2 UNK        -0.5047 
     32 CA         24.3327   25.3121    1.6939 C.3       2 UNK         0.0288 
     33 CB         23.1405   25.1294    2.6471 C.3       2 UNK        -0.2113 
     34 N          25.4904   24.5796    2.2225 N.am      2 UNK        -0.4145 
     35 C          26.7378   24.6489    1.7349 C.2       1 UNK         0.5006 
     36 O          27.0490   25.2818    0.7221 O.2       1 UNK        -0.5103 
     37 C          28.1062   29.0848   -0.7483 C.2       5 UNK         0.5055 
     38 O          27.8429   30.2873   -0.7965 O.2       5 UNK        -0.5220 
     39 N          27.8719   28.3066    0.3228 N.am      6 UNK        -0.4450 
     40 CA         27.3290   28.7180    1.6258 C.3       6 UNK         0.0367 
     41 CB         25.8704   29.1998    1.4779 C.3       6 UNK        -0.1929 
     42 C          28.1997   29.7320    2.4077 C.2       6 UNK         0.5070 
     43 O          27.6877   30.3891    3.3161 O.2       6 UNK        -0.5237 
     44 N          29.4975   29.8439    2.0830 N.am      7 UNK        -0.4739 
     45 CA         30.4434   30.7976    2.6816 C.3       7 UNK         0.0276 
     46 CB         31.6018   31.0467    1.6983 C.3       7 UNK        -0.1927 
     47 C          30.9463   30.3469    4.0676 C.2       7 UNK         0.5013 
     48 O          32.1411   30.1052    4.2486 O.2       7 UNK        -0.5193 
     49 N          30.0237   30.2425    5.0312 N.am      8 UNK        -0.4253 
     50 CA         30.2383   29.7094    6.3843 C.3       8 UNK         0.0242 
     51 CB         28.8859   29.6596    7.1155 C.3       8 UNK        -0.2000 
     52 C          31.2881   30.4369    7.2465 C.2       8 UNK         0.4948 
     53 O          31.7282   29.8687    8.2467 O.2       8 UNK        -0.5275 
     54 N          31.6656   31.6649    6.8661 N.am      9 UNK        -0.4246 
     55 CA         32.6656   32.4818    7.5540 C.3       9 UNK         0.0261 
     56 CB         32.6542   33.9042    6.9699 C.3       9 UNK        -0.1959 
     57 C          34.0878   31.8931    7.5128 C.2       9 UNK         0.5033 
     58 O          34.7852   31.9614    8.5266 O.2       9 UNK        -0.5390 
     59 N          34.5014   31.3499    6.3572 N.am      10 UNK        -0.4215 
     60 CA         35.8696   30.8595    6.1281 C.3       10 UNK         0.0240 
     61 CB         36.8413   32.0561    6.0029 C.3       10 UNK        -0.1982 
     62 C          36.0153   29.9171    4.9171 C.2       10 UNK         0.4970 
     63 O          37.1476   29.5685    4.5793 O.2       10 UNK        -0.4916 
     64 N          34.9092   29.5440    4.2601 N.am      11 UNK        -0.4279 
     65 CA         34.8703   28.8041    2.9868 C.3       11 UNK         0.1003 
     66 C          35.4039   29.5968    1.7538 C.2       11 UNK         0.5709 
     67 N          35.5277   30.9175    1.8201 N.am      11 UNK        -0.7358 
     68 O          35.6793   29.0159    0.7068 O.2       11 UNK        -0.4999 
     69 C69        35.4313   27.3494    3.0563 C.3       12 UNK        -0.0954 
     70 S70        34.7843   26.2997    4.4051 S.3       12 UNK        -0.2268 
     71 C71        32.9816   26.3013    4.1455 C.3       12 UNK         0.0203 
     72 H72        29.0156   27.7275    4.6505 H         1 UNK         0.0888 
     73 H73        30.1542   26.4897    5.1912 H         1 UNK         0.0888 
     74 H74        30.1542   27.0379    3.5015 H         1 UNK         0.0888 
     75 H75        29.6673   24.9484    2.5692 H         1 UNK         0.3017 
     76 H76        27.3669   23.4084    3.3777 H         1 UNK         0.0873 
     77 H77        27.7821   22.1107    1.2911 H         1 UNK         0.0745 
     78 H78        28.9939   23.2562    0.7883 H         1 UNK         0.0745 
     79 H79        32.0971   21.5859    2.1800 H         1 UNK         0.0705 
     80 H80        31.1926   21.7863    0.7022 H         1 UNK         0.0705 
     81 H81        32.2592   23.6774    3.7834 H         1 UNK         0.1334 
     82 H82        32.6913   27.3712    1.6609 H         1 UNK         0.1417 
     83 H83        31.2343   23.9099   -0.3766 H         1 UNK         0.1562 
     84 H84        31.1570   26.0391   -1.4847 H         1 UNK         0.0748 
     85 H85        32.7951   26.6114   -1.2704 H         1 UNK         0.0748 
     86 H86        30.7814   28.1870   -2.8568 H         1 UNK         0.0940 
     87 H87        30.4947   29.7546   -2.1728 H         1 UNK         0.0940 
     88 H88        28.3644   28.8997   -2.8509 H         1 UNK         0.0703 
     89 H89        29.2901   26.3695   -1.9182 H         1 UNK         0.3081 
     90 H90        27.1931   24.7782   -3.7909 H         1 UNK         0.0719 
     91 H91        28.8860   24.3713   -1.2626 H         1 UNK         0.0809 
     92 H92        28.5516   23.1305   -2.4605 H         1 UNK         0.0809 
     93 H93        29.4866   24.5368   -2.9167 H         1 UNK         0.0809 
     94 H94        26.2507   24.5323   -0.9696 H         1 UNK         0.2990 
     95 H95        23.1251   23.5054   -1.8886 H         1 UNK         0.0690 
     96 H96        23.3465   21.2535   -0.8397 H         1 UNK         0.0788 
     97 H97        25.0891   21.2757   -1.1180 H         1 UNK         0.0788 
     98 H98        23.9757   21.2376   -2.4776 H         1 UNK         0.0788 
     99 H99        24.7006   23.0720    0.5163 H         1 UNK         0.2993 
    100 H100       24.5973   26.3707    1.6799 H         1 UNK         0.0949 
    101 H101       22.2705   25.6866    2.2961 H         1 UNK         0.0767 
    102 H102       22.8456   24.0824    2.7296 H         1 UNK         0.0767 
    103 H103       23.3730   25.4942    3.6479 H         1 UNK         0.0767 
    104 H104       25.3361   24.0603    3.0753 H         1 UNK         0.3013 
    105 H105       28.0851   27.3200    0.2405 H         1 UNK         0.3121 
    106 H106       27.3079   27.8133    2.2333 H         1 UNK         0.0774 
    107 H107       25.3871   29.2893    2.4515 H         1 UNK         0.0815 
    108 H108       25.8160   30.1774    0.9981 H         1 UNK         0.0815 
    109 H109       25.2785   28.5050    0.8827 H         1 UNK         0.0815 
    110 H110       29.8574   29.2625    1.3376 H         1 UNK         0.2987 
    111 H111       29.9284   31.7505    2.8234 H         1 UNK         0.0949 
    112 H112       32.1926   30.1465    1.5313 H         1 UNK         0.0806 
    113 H113       31.2361   31.3917    0.7310 H         1 UNK         0.0806 
    114 H114       32.2804   31.8111    2.0789 H         1 UNK         0.0806 
    115 H115       29.0644   30.4460    4.7649 H         1 UNK         0.3010 
    116 H116       30.6039   28.6876    6.2727 H         1 UNK         0.0829 
    117 H117       28.1621   29.0465    6.5783 H         1 UNK         0.0813 
    118 H118       28.9932   29.2289    8.1122 H         1 UNK         0.0813 
    119 H119       28.4580   30.6557    7.2352 H         1 UNK         0.0813 
    120 H120       31.2426   32.0544    6.0367 H         1 UNK         0.3038 
    121 H121       32.3701   32.5470    8.6036 H         1 UNK         0.0769 
    122 H122       31.6773   34.3739    7.0869 H         1 UNK         0.0811 
    123 H123       32.9056   33.9103    5.9085 H         1 UNK         0.0811 
    124 H124       33.3796   34.5402    7.4795 H         1 UNK         0.0811 
    125 H125       33.8559   31.3233    5.5800 H         1 UNK         0.3204 
    126 H126       36.1648   30.2668    6.9965 H         1 UNK         0.0748 
    127 H127       36.8423   32.6744    6.9003 H         1 UNK         0.0771 
    128 H128       37.8694   31.7229    5.8548 H         1 UNK         0.0771 
    129 H129       36.5804   32.6951    5.1586 H         1 UNK         0.0771 
    130 H130       33.9898   29.8266    4.5819 H         1 UNK         0.2980 
    131 H131       33.8086   28.7312    2.7807 H         1 UNK         0.0545 
    132 H132       35.8628   31.4198    1.0136 H         1 UNK         0.3459 
    133 H133       35.2944   31.4144    2.6633 H         1 UNK         0.3459 
    134 H134       35.2373   26.8235    2.1203 H         1 UNK         0.0616 
    135 H135       36.5172   27.3750    3.1561 H         1 UNK         0.0616 
    136 H136       32.5231   25.8047    5.0016 H         1 UNK         0.0634 
    137 H137       32.6093   27.3258    4.1684 H         1 UNK         0.0634 
@<TRIPOS>BOND
     1    1    2 1    
     2    1   72 1    
     3    1   73 1    
     4    1   74 1    
     5    2    3 2    
     6    2    4 am   BACKBONE|DICT|INTERRES
     7    4    5 1    
     8    4   75 1    
     9    5    6 1    
    10    5   35 1    
    11    5   76 1    
    12    6    7 1    
    13    6   77 1    
    14    6   78 1    
    15    7    8 1    
    16    8    9 1    
    17    8   79 1    
    18    8   80 1    
    19    9   10 ar   
    20    9   14 ar   
    21   10   11 ar   
    22   10   81 1    
    23   11   12 ar   
    24   11   71 1    
    25   12   13 ar   
    26   12   82 1    
    27   13   14 ar   
    28   13   15 1    
    29   14   83 1    
    30   15   16 1    
    31   15   84 1    
    32   15   85 1    
    33   16   17 1    
    34   17   18 1    
    35   17   86 1    
    36   17   87 1    
    37   18   19 1    
    38   18   37 1    
    39   18   88 1    
    40   19   20 am   BACKBONE|DICT|INTERRES
    41   19   89 1    
    42   20   21 2    
    43   20   22 1    
    44   22   23 1    
    45   22   24 1    
    46   22   90 1    
    47   23   91 1    
    48   23   92 1    
    49   23   93 1    
    50   24   25 am   BACKBONE|DICT|INTERRES
    51   24   94 1    
    52   25   26 2    
    53   25   27 1    
    54   27   28 1    
    55   27   29 1    
    56   27   95 1    
    57   28   96 1    
    58   28   97 1    
    59   28   98 1    
    60   29   30 am   BACKBONE|DICT|INTERRES
    61   29   99 1    
    62   30   31 2    
    63   30   32 1    
    64   32   33 1    
    65   32   34 1    
    66   32  100 1    
    67   33  101 1    
    68   33  102 1    
    69   33  103 1    
    70   34   35 am   BACKBONE|DICT|INTERRES
    71   34  104 1    
    72   35   36 2    
    73   37   38 2    
    74   37   39 am   BACKBONE|DICT|INTERRES
    75   39   40 1    
    76   39  105 1    
    77   40   41 1    
    78   40   42 1    
    79   40  106 1    
    80   41  107 1    
    81   41  108 1    
    82   41  109 1    
    83   42   43 2    
    84   42   44 am   BACKBONE|DICT|INTERRES
    85   44   45 1    
    86   44  110 1    
    87   45   46 1    
    88   45   47 1    
    89   45  111 1    
    90   46  112 1    
    91   46  113 1    
    92   46  114 1    
    93   47   48 2    
    94   47   49 am   BACKBONE|DICT|INTERRES
    95   49   50 1    
    96   49  115 1    
    97   50   51 1    
    98   50   52 1    
    99   50  116 1    
   100   51  117 1    
   101   51  118 1    
   102   51  119 1    
   103   52   53 2    
   104   52   54 am   BACKBONE|DICT|INTERRES
   105   54   55 1    
   106   54  120 1    
   107   55   56 1    
   108   55   57 1    
   109   55  121 1    
   110   56  122 1    
   111   56  123 1    
   112   56  124 1    
   113   57   58 2    
   114   57   59 am   BACKBONE|DICT|INTERRES
   115   59   60 1    
   116   59  125 1    
   117   60   61 1    
   118   60   62 1    
   119   60  126 1    
   120   61  127 1    
   121   61  128 1    
   122   61  129 1    
   123   62   63 2    
   124   62   64 am   BACKBONE|DICT|INTERRES
   125   64   65 1    
   126   64  130 1    
   127   65   66 1    
   128   65   69 1    
   129   65  131 1    
   130   66   67 am   BACKBONE|DICT|INTERRES
   131   66   68 2    
   132   67  132 1    
   133   67  133 1    
   134   69   70 1    
   135   69  134 1    
   136   69  135 1    
   137   70   71 1    
   138   71  136 1    
   139   71  137 1    
@<TRIPOS>SUBSTRUCTURE
     1 UNK         1 GROUP             0       ****    0 ROOT    
