@<TRIPOS>MOLECULE
3R136
137   139    1
SMALL
USER_CHARGES


@<TRIPOS>ATOM
      1 CA         33.6146   23.4257   -4.5621 C.3       0 UNK        -0.1979 
      2 C          32.3537   23.6939   -3.7564 C.2       0 UNK         0.4864 
      3 O          31.2816   23.2214   -4.1339 O.2       0 UNK        -0.5359 
      4 N          32.4836   24.4399   -2.6507 N.am      1 UNK        -0.4318 
      5 CA         31.4058   24.8698   -1.7512 C.3       1 UNK         0.0824 
      6 C6         30.6134   23.6721   -1.1453 C.3       12 UNK        -0.0944 
      7 S7         29.9763   24.0169    0.5279 S.3       12 UNK        -0.2672 
      8 C8         31.2149   23.1514    1.5386 C.3       12 UNK         0.0333 
      9 C9         31.1521   23.5922    2.9918 C.ar      12 UNK        -0.0807 
     10 C10        32.0751   24.5188    3.4840 C.ar      12 UNK        -0.0894 
     11 C11        32.0480   24.9205    4.8223 C.ar      12 UNK        -0.0804 
     12 C12        31.0746   24.3778    5.6723 C.ar      12 UNK        -0.0824 
     13 C13        30.1426   23.4533    5.1915 C.ar      12 UNK        -0.0762 
     14 C14        30.1868   23.0617    3.8506 C.ar      12 UNK        -0.0782 
     15 C15        29.0946   22.8667    6.1249 C.3       12 UNK         0.0230 
     16 S16        27.4424   23.5594    5.8095 S.3       12 UNK        -0.2608 
     17 C17        27.6709   25.3176    6.2505 C.3       12 UNK        -0.0989 
     18 CA         27.7578   26.2462    5.0082 C.3       5 UNK         0.0716 
     19 N          26.5854   26.0871    4.1400 N.am      5 UNK        -0.4135 
     20 C          26.5315   26.3728    2.8348 C.2       4 UNK         0.5031 
     21 O          27.4895   26.7970    2.1824 O.2       4 UNK        -0.5229 
     22 CA         25.1500   26.2476    2.1777 C.3       4 UNK         0.0329 
     23 CB         24.3998   27.5864    2.2708 C.3       4 UNK        -0.2001 
     24 N          25.2854   25.8827    0.7721 N.am      4 UNK        -0.4303 
     25 C          25.4447   24.6398    0.3083 C.2       3 UNK         0.5044 
     26 O          25.3776   23.6317    1.0126 O.2       3 UNK        -0.5152 
     27 CA         25.7400   24.4907   -1.1960 C.3       3 UNK         0.0319 
     28 CB         24.4746   24.7177   -2.0469 C.3       3 UNK        -0.2001 
     29 N          26.8704   25.3078   -1.6627 N.am      3 UNK        -0.4354 
     30 C          26.9807   26.6452   -1.7323 C.2       2 UNK         0.4964 
     31 O          26.0639   27.4233   -1.4629 O.2       2 UNK        -0.5047 
     32 CA         28.3581   27.2010   -2.1328 C.3       2 UNK         0.0288 
     33 CB         28.6162   28.6106   -1.5691 C.3       2 UNK        -0.2113 
     34 N          29.4174   26.2939   -1.6887 N.am      2 UNK        -0.4145 
     35 C          30.4923   25.9399   -2.3988 C.2       1 UNK         0.5006 
     36 O          30.7712   26.4284   -3.4973 O.2       1 UNK        -0.5103 
     37 C          27.9087   27.7343    5.4025 C.2       5 UNK         0.5055 
     38 O          27.7711   28.0775    6.5780 O.2       5 UNK        -0.5220 
     39 N          28.1039   28.5939    4.3973 N.am      6 UNK        -0.4450 
     40 CA         28.0715   30.0520    4.4949 C.3       6 UNK         0.0367 
     41 CB         27.0052   30.5618    3.5067 C.3       6 UNK        -0.1929 
     42 C          29.4424   30.6593    4.1709 C.2       6 UNK         0.5070 
     43 O          30.3751   29.9425    3.7994 O.2       6 UNK        -0.5237 
     44 N          29.5369   31.9925    4.2748 N.am      7 UNK        -0.4739 
     45 CA         30.7316   32.7851    3.9530 C.3       7 UNK         0.0276 
     46 CB         30.4677   34.2651    4.2686 C.3       7 UNK        -0.1927 
     47 C          31.2171   32.6174    2.5033 C.2       7 UNK         0.5013 
     48 O          32.4243   32.6357    2.2673 O.2       7 UNK        -0.5193 
     49 N          30.2811   32.3737    1.5750 N.am      8 UNK        -0.4253 
     50 CA         30.5526   32.0161    0.1791 C.3       8 UNK         0.0242 
     51 CB         29.2280   31.9930   -0.5999 C.3       8 UNK        -0.2000 
     52 C          31.3034   30.6790    0.0138 C.2       8 UNK         0.4948 
     53 O          32.0068   30.5087   -0.9816 O.2       8 UNK        -0.5275 
     54 N          31.1648   29.7731    0.9926 N.am      9 UNK        -0.4246 
     55 CA         31.8912   28.5057    1.0832 C.3       9 UNK         0.0261 
     56 CB         30.9220   27.4191    1.5785 C.3       9 UNK        -0.1959 
     57 C          33.1167   28.6026    2.0150 C.2       9 UNK         0.5033 
     58 O          33.7553   27.5783    2.2544 O.2       9 UNK        -0.5390 
     59 N          33.4190   29.8088    2.5234 N.am      10 UNK        -0.4215 
     60 CA         34.4645   30.1492    3.4960 C.3       10 UNK         0.0240 
     61 CB         35.8693   29.7366    3.0035 C.3       10 UNK        -0.1982 
     62 C          34.1627   29.6832    4.9356 C.2       10 UNK         0.4970 
     63 O          35.0995   29.5073    5.7163 O.2       10 UNK        -0.4916 
     64 N          32.8767   29.5425    5.2830 N.am      11 UNK        -0.4279 
     65 CA         32.3871   29.2697    6.6436 C.3       11 UNK         0.1003 
     66 C          31.5119   30.4528    7.1375 C.2       11 UNK         0.5709 
     67 N          32.0537   31.6646    7.1544 N.am      11 UNK        -0.7358 
     68 O          30.3506   30.2955    7.5042 O.2       11 UNK        -0.4999 
     69 C69        31.6990   27.8782    6.7397 C.3       12 UNK        -0.0954 
     70 S70        32.9299   26.5568    6.9841 S.3       12 UNK        -0.2268 
     71 C71        33.1167   25.9087    5.2917 C.3       12 UNK         0.0203 
     72 H72        34.4960   23.8685   -4.1006 H         1 UNK         0.0888 
     73 H73        33.7825   22.3533   -4.6496 H         1 UNK         0.0888 
     74 H74        33.5128   23.8392   -5.5652 H         1 UNK         0.0888 
     75 H75        33.3944   24.8127   -2.4266 H         1 UNK         0.3017 
     76 H76        31.9223   25.3800   -0.9377 H         1 UNK         0.0873 
     77 H77        29.7838   23.3776   -1.7901 H         1 UNK         0.0745 
     78 H78        31.2517   22.7892   -1.0860 H         1 UNK         0.0745 
     79 H79        31.0531   22.0747    1.4666 H         1 UNK         0.0705 
     80 H80        32.2107   23.3420    1.1345 H         1 UNK         0.0705 
     81 H81        32.8276   24.9285    2.8230 H         1 UNK         0.1334 
     82 H82        31.0359   24.6609    6.7140 H         1 UNK         0.1417 
     83 H83        29.4664   22.3478    3.4745 H         1 UNK         0.1562 
     84 H84        29.3633   23.0313    7.1697 H         1 UNK         0.0748 
     85 H85        29.0550   21.7850    5.9885 H         1 UNK         0.0748 
     86 H86        28.5623   25.4261    6.8708 H         1 UNK         0.0940 
     87 H87        26.8312   25.6060    6.8861 H         1 UNK         0.0940 
     88 H88        28.6510   25.9684    4.4432 H         1 UNK         0.0703 
     89 H89        25.7461   25.7682    4.6008 H         1 UNK         0.3081 
     90 H90        24.5707   25.4800    2.6957 H         1 UNK         0.0719 
     91 H91        24.9446   28.3885    1.7703 H         1 UNK         0.0809 
     92 H92        23.4115   27.5191    1.8157 H         1 UNK         0.0809 
     93 H93        24.2583   27.8870    3.3097 H         1 UNK         0.0809 
     94 H94        25.4316   26.6422    0.1119 H         1 UNK         0.2990 
     95 H95        26.0489   23.4553   -1.3495 H         1 UNK         0.0690 
     96 H96        24.6726   24.5432   -3.1044 H         1 UNK         0.0788 
     97 H97        24.0826   25.7296   -1.9424 H         1 UNK         0.0788 
     98 H98        23.6800   24.0326   -1.7486 H         1 UNK         0.0788 
     99 H99        27.6900   24.7738   -1.9141 H         1 UNK         0.2993 
    100 H100       28.3561   27.2603   -3.2234 H         1 UNK         0.0949 
    101 H101       29.6022   28.9746   -1.8573 H         1 UNK         0.0767 
    102 H102       27.8850   29.3253   -1.9484 H         1 UNK         0.0767 
    103 H103       28.5548   28.6259   -0.4804 H         1 UNK         0.0767 
    104 H104       29.2772   25.8534   -0.7863 H         1 UNK         0.3013 
    105 H105       28.2166   28.2069    3.4652 H         1 UNK         0.3121 
    106 H106       27.8017   30.3636    5.5062 H         1 UNK         0.0774 
    107 H107       26.8830   31.6437    3.5659 H         1 UNK         0.0815 
    108 H108       27.2591   30.3151    2.4746 H         1 UNK         0.0815 
    109 H109       26.0306   30.1223    3.7206 H         1 UNK         0.0815 
    110 H110       28.7309   32.5091    4.5976 H         1 UNK         0.2987 
    111 H111       31.5410   32.4382    4.5967 H         1 UNK         0.0949 
    112 H112       29.6440   34.6655    3.6762 H         1 UNK         0.0806 
    113 H113       30.2264   34.4090    5.3219 H         1 UNK         0.0806 
    114 H114       31.3485   34.8725    4.0552 H         1 UNK         0.0806 
    115 H115       29.3142   32.3825    1.8648 H         1 UNK         0.3010 
    116 H116       31.1871   32.7967   -0.2460 H         1 UNK         0.0829 
    117 H117       28.7447   32.9698   -0.5894 H         1 UNK         0.0813 
    118 H118       29.3934   31.7274   -1.6451 H         1 UNK         0.0813 
    119 H119       28.5277   31.2674   -0.1853 H         1 UNK         0.0813 
    120 H120       30.6041   30.0035    1.8062 H         1 UNK         0.3038 
    121 H121       32.2520   28.2133    0.0953 H         1 UNK         0.0769 
    122 H122       30.6259   27.5747    2.6162 H         1 UNK         0.0811 
    123 H123       31.3888   26.4375    1.5222 H         1 UNK         0.0811 
    124 H124       30.0157   27.3786    0.9765 H         1 UNK         0.0811 
    125 H125       32.8490   30.5962    2.2351 H         1 UNK         0.3204 
    126 H126       34.4593   31.2388    3.5459 H         1 UNK         0.0748 
    127 H127       36.6471   30.1739    3.6306 H         1 UNK         0.0771 
    128 H128       36.0078   28.6555    3.0278 H         1 UNK         0.0771 
    129 H129       36.0490   30.0768    1.9838 H         1 UNK         0.0771 
    130 H130       32.1478   29.7134    4.5962 H         1 UNK         0.2980 
    131 H131       33.2217   29.2654    7.3472 H         1 UNK         0.0545 
    132 H132       33.0128   31.8052    6.8798 H         1 UNK         0.3459 
    133 H133       31.5029   32.4424    7.4810 H         1 UNK         0.3459 
    134 H134       31.0274   27.8243    7.5979 H         1 UNK         0.0616 
    135 H135       31.0832   27.6769    5.8610 H         1 UNK         0.0616 
    136 H136       34.0881   25.4174    5.2265 H         1 UNK         0.0634 
    137 H137       33.1529   26.7529    4.6055 H         1 UNK         0.0634 
@<TRIPOS>BOND
     1    1    2 1    
     2    1   72 1    
     3    1   73 1    
     4    1   74 1    
     5    2    3 2    
     6    2    4 am   BACKBONE|DICT|INTERRES
     7    4    5 1    
     8    4   75 1    
     9    5    6 1    
    10    5   35 1    
    11    5   76 1    
    12    6    7 1    
    13    6   77 1    
    14    6   78 1    
    15    7    8 1    
    16    8    9 1    
    17    8   79 1    
    18    8   80 1    
    19    9   10 ar   
    20    9   14 ar   
    21   10   11 ar   
    22   10   81 1    
    23   11   12 ar   
    24   11   71 1    
    25   12   13 ar   
    26   12   82 1    
    27   13   14 ar   
    28   13   15 1    
    29   14   83 1    
    30   15   16 1    
    31   15   84 1    
    32   15   85 1    
    33   16   17 1    
    34   17   18 1    
    35   17   86 1    
    36   17   87 1    
    37   18   19 1    
    38   18   37 1    
    39   18   88 1    
    40   19   20 am   BACKBONE|DICT|INTERRES
    41   19   89 1    
    42   20   21 2    
    43   20   22 1    
    44   22   23 1    
    45   22   24 1    
    46   22   90 1    
    47   23   91 1    
    48   23   92 1    
    49   23   93 1    
    50   24   25 am   BACKBONE|DICT|INTERRES
    51   24   94 1    
    52   25   26 2    
    53   25   27 1    
    54   27   28 1    
    55   27   29 1    
    56   27   95 1    
    57   28   96 1    
    58   28   97 1    
    59   28   98 1    
    60   29   30 am   BACKBONE|DICT|INTERRES
    61   29   99 1    
    62   30   31 2    
    63   30   32 1    
    64   32   33 1    
    65   32   34 1    
    66   32  100 1    
    67   33  101 1    
    68   33  102 1    
    69   33  103 1    
    70   34   35 am   BACKBONE|DICT|INTERRES
    71   34  104 1    
    72   35   36 2    
    73   37   38 2    
    74   37   39 am   BACKBONE|DICT|INTERRES
    75   39   40 1    
    76   39  105 1    
    77   40   41 1    
    78   40   42 1    
    79   40  106 1    
    80   41  107 1    
    81   41  108 1    
    82   41  109 1    
    83   42   43 2    
    84   42   44 am   BACKBONE|DICT|INTERRES
    85   44   45 1    
    86   44  110 1    
    87   45   46 1    
    88   45   47 1    
    89   45  111 1    
    90   46  112 1    
    91   46  113 1    
    92   46  114 1    
    93   47   48 2    
    94   47   49 am   BACKBONE|DICT|INTERRES
    95   49   50 1    
    96   49  115 1    
    97   50   51 1    
    98   50   52 1    
    99   50  116 1    
   100   51  117 1    
   101   51  118 1    
   102   51  119 1    
   103   52   53 2    
   104   52   54 am   BACKBONE|DICT|INTERRES
   105   54   55 1    
   106   54  120 1    
   107   55   56 1    
   108   55   57 1    
   109   55  121 1    
   110   56  122 1    
   111   56  123 1    
   112   56  124 1    
   113   57   58 2    
   114   57   59 am   BACKBONE|DICT|INTERRES
   115   59   60 1    
   116   59  125 1    
   117   60   61 1    
   118   60   62 1    
   119   60  126 1    
   120   61  127 1    
   121   61  128 1    
   122   61  129 1    
   123   62   63 2    
   124   62   64 am   BACKBONE|DICT|INTERRES
   125   64   65 1    
   126   64  130 1    
   127   65   66 1    
   128   65   69 1    
   129   65  131 1    
   130   66   67 am   BACKBONE|DICT|INTERRES
   131   66   68 2    
   132   67  132 1    
   133   67  133 1    
   134   69   70 1    
   135   69  134 1    
   136   69  135 1    
   137   70   71 1    
   138   71  136 1    
   139   71  137 1    
@<TRIPOS>SUBSTRUCTURE
     1 UNK         1 GROUP             0       ****    0 ROOT    
