@<TRIPOS>MOLECULE
3R136
137   139    1
SMALL
USER_CHARGES


@<TRIPOS>ATOM
      1 CA         26.3010   26.6554    4.1677 C.3       0 UNK        -0.1979 
      2 C          27.0847   25.3669    3.9691 C.2       0 UNK         0.4864 
      3 O          26.7301   24.3358    4.5433 O.2       0 UNK        -0.5359 
      4 N          28.1318   25.4130    3.1389 N.am      1 UNK        -0.4318 
      5 CA         28.9996   24.2970    2.7641 C.3       1 UNK         0.0824 
      6 C6         30.2062   24.8294    1.9641 C.3       12 UNK        -0.0944 
      7 S7         31.5374   23.6095    1.6964 S.3       12 UNK        -0.2672 
      8 C8         31.9377   23.8806   -0.0672 C.3       12 UNK         0.0333 
      9 C9         32.0736   25.3605   -0.4111 C.ar      12 UNK        -0.0807 
     10 C10        33.0264   26.1501    0.2350 C.ar      12 UNK        -0.0894 
     11 C11        33.0808   27.5292    0.0102 C.ar      12 UNK        -0.0804 
     12 C12        32.1978   28.1069   -0.9090 C.ar      12 UNK        -0.0824 
     13 C13        31.2565   27.3270   -1.5910 C.ar      12 UNK        -0.0762 
     14 C14        31.2067   25.9500   -1.3358 C.ar      12 UNK        -0.0782 
     15 C15        30.3453   27.9954   -2.6237 C.3       12 UNK         0.0230 
     16 S16        28.7535   27.1392   -2.9151 S.3       12 UNK        -0.2608 
     17 C17        27.5133   28.3186   -2.2696 C.3       12 UNK        -0.0989 
     18 CA         26.9405   27.9665   -0.8632 C.3       5 UNK         0.0716 
     19 N          26.4217   26.6011   -0.7690 N.am      5 UNK        -0.4135 
     20 C          25.3602   26.1353   -1.4364 C.2       4 UNK         0.5031 
     21 O          24.6286   26.8351   -2.1387 O.2       4 UNK        -0.5229 
     22 CA         25.0675   24.6342   -1.3171 C.3       4 UNK         0.0329 
     23 CB         26.1162   23.8106   -2.0849 C.3       4 UNK        -0.2001 
     24 N          25.0122   24.1903    0.0756 N.am      4 UNK        -0.4303 
     25 C          23.9060   24.2256    0.8354 C.2       3 UNK         0.5044 
     26 O          22.8429   24.7148    0.4493 O.2       3 UNK        -0.5152 
     27 CA         23.9732   23.6222    2.2590 C.3       3 UNK         0.0319 
     28 CB         22.6732   22.8852    2.6454 C.3       3 UNK        -0.2001 
     29 N          25.1458   22.7739    2.5076 N.am      3 UNK        -0.4354 
     30 C          25.4963   21.6403    1.8750 C.2       2 UNK         0.4964 
     31 O          24.7753   21.0576    1.0640 O.2       2 UNK        -0.5047 
     32 CA         26.9160   21.0970    2.1629 C.3       2 UNK         0.0288 
     33 CB         27.5044   20.3263    0.9613 C.3       2 UNK        -0.2113 
     34 N          27.8589   22.1334    2.6147 N.am      2 UNK        -0.4145 
     35 C          28.1755   23.2685    1.9700 C.2       1 UNK         0.5006 
     36 O          27.7587   23.5660    0.8475 O.2       1 UNK        -0.5103 
     37 C          27.9469   28.2123    0.2739 C.2       5 UNK         0.5055 
     38 O          28.1943   27.3188    1.0862 O.2       5 UNK        -0.5220 
     39 N          28.5008   29.4259    0.3187 N.am      6 UNK        -0.4450 
     40 CA         29.5466   29.8633    1.2333 C.3       6 UNK         0.0367 
     41 CB         28.9398   30.2194    2.6032 C.3       6 UNK        -0.1929 
     42 C          30.2528   31.0672    0.5973 C.2       6 UNK         0.5070 
     43 O          29.7624   31.6042   -0.4006 O.2       6 UNK        -0.5237 
     44 N          31.3779   31.4787    1.1885 N.am      7 UNK        -0.4739 
     45 CA         32.1314   32.6706    0.7996 C.3       7 UNK         0.0276 
     46 CB         32.9918   32.4126   -0.4539 C.3       7 UNK        -0.1927 
     47 C          32.9713   33.1413    1.9893 C.2       7 UNK         0.5013 
     48 O          32.7887   34.2650    2.4586 O.2       7 UNK        -0.5193 
     49 N          33.8485   32.2547    2.4777 N.am      8 UNK        -0.4253 
     50 CA         34.6212   32.4471    3.7040 C.3       8 UNK         0.0242 
     51 CB         35.8669   31.5464    3.6502 C.3       8 UNK        -0.2000 
     52 C          33.7735   32.1046    4.9380 C.2       8 UNK         0.4948 
     53 O          32.8291   31.3164    4.8354 O.2       8 UNK        -0.5275 
     54 N          34.1724   32.6373    6.1009 N.am      9 UNK        -0.4246 
     55 CA         33.5435   32.3702    7.4018 C.3       9 UNK         0.0261 
     56 CB         34.1775   33.2749    8.4709 C.3       9 UNK        -0.1959 
     57 C          33.6095   30.8929    7.8367 C.2       9 UNK         0.5033 
     58 O          32.7248   30.4384    8.5625 O.2       9 UNK        -0.5390 
     59 N          34.6359   30.1688    7.3678 N.am      10 UNK        -0.4215 
     60 CA         34.7818   28.7212    7.5340 C.3       10 UNK         0.0240 
     61 CB         36.2308   28.3201    7.2118 C.3       10 UNK        -0.1982 
     62 C          33.7976   27.9115    6.6683 C.2       10 UNK         0.4970 
     63 O          33.4404   26.7987    7.0569 O.2       10 UNK        -0.4916 
     64 N          33.3885   28.4684    5.5209 N.am      11 UNK        -0.4279 
     65 CA         32.3980   27.8745    4.6127 C.3       11 UNK         0.1003 
     66 C          30.9468   28.1634    5.0771 C.2       11 UNK         0.5709 
     67 N          30.6615   29.3590    5.5801 N.am      11 UNK        -0.7358 
     68 O          30.0807   27.2989    4.9866 O.2       11 UNK        -0.4999 
     69 C69        32.5990   28.3361    3.1464 C.3       12 UNK        -0.0954 
     70 S70        34.2749   27.9947    2.5166 S.3       12 UNK        -0.2268 
     71 C71        34.0923   28.4032    0.7468 C.3       12 UNK         0.0203 
     72 H72        26.7040   27.4702    3.5659 H         1 UNK         0.0888 
     73 H73        25.2578   26.5118    3.8894 H         1 UNK         0.0888 
     74 H74        26.3387   26.9573    5.2139 H         1 UNK         0.0888 
     75 H75        28.2940   26.2650    2.6051 H         1 UNK         0.3017 
     76 H76        29.3685   23.8386    3.6840 H         1 UNK         0.0873 
     77 H77        29.8604   25.2301    1.0108 H         1 UNK         0.0745 
     78 H78        30.6548   25.6731    2.4910 H         1 UNK         0.0745 
     79 H79        32.8694   23.3663   -0.3061 H         1 UNK         0.0705 
     80 H80        31.1604   23.4122   -0.6733 H         1 UNK         0.0705 
     81 H81        33.6980   25.6913    0.9476 H         1 UNK         0.1334 
     82 H82        32.2480   29.1702   -1.1013 H         1 UNK         0.1417 
     83 H83        30.4828   25.3293   -1.8443 H         1 UNK         0.1562 
     84 H84        30.8842   28.0353   -3.5710 H         1 UNK         0.0748 
     85 H85        30.1618   29.0318   -2.3379 H         1 UNK         0.0748 
     86 H86        26.6933   28.3298   -2.9889 H         1 UNK         0.0940 
     87 H87        27.9057   29.3355   -2.3031 H         1 UNK         0.0940 
     88 H88        26.1034   28.6385   -0.6629 H         1 UNK         0.0703 
     89 H89        26.9672   25.9868   -0.1765 H         1 UNK         0.3081 
     90 H90        24.0999   24.4447   -1.7874 H         1 UNK         0.0719 
     91 H91        27.1242   23.9656   -1.6987 H         1 UNK         0.0809 
     92 H92        25.8989   22.7437   -2.0302 H         1 UNK         0.0809 
     93 H93        26.1295   24.0866   -3.1401 H         1 UNK         0.0809 
     94 H94        25.8723   23.8100    0.4613 H         1 UNK         0.2990 
     95 H95        24.0770   24.4724    2.9339 H         1 UNK         0.0690 
     96 H96        22.7321   22.4800    3.6555 H         1 UNK         0.0788 
     97 H97        22.4563   22.0615    1.9648 H         1 UNK         0.0788 
     98 H98        21.8166   23.5599    2.6196 H         1 UNK         0.0788 
     99 H99        25.8053   23.1559    3.1801 H         1 UNK         0.2993 
    100 H100       26.8070   20.3942    2.9903 H         1 UNK         0.0949 
    101 H101       28.5027   19.9489    1.1825 H         1 UNK         0.0767 
    102 H102       26.8846   19.4664    0.7039 H         1 UNK         0.0767 
    103 H103       27.5731   20.9551    0.0726 H         1 UNK         0.0767 
    104 H104       28.2113   22.0135    3.5550 H         1 UNK         0.3013 
    105 H105       28.2880   30.1157   -0.3927 H         1 UNK         0.3121 
    106 H106       30.2768   29.0603    1.3446 H         1 UNK         0.0774 
    107 H107       29.6940   30.6206    3.2802 H         1 UNK         0.0815 
    108 H108       28.1543   30.9702    2.5112 H         1 UNK         0.0815 
    109 H109       28.5102   29.3417    3.0863 H         1 UNK         0.0815 
    110 H110       31.6670   31.0393    2.0520 H         1 UNK         0.2987 
    111 H111       31.4229   33.4704    0.5699 H         1 UNK         0.0949 
    112 H112       33.7016   31.5992   -0.3093 H         1 UNK         0.0806 
    113 H113       32.3728   32.1639   -1.3160 H         1 UNK         0.0806 
    114 H114       33.5659   33.3015   -0.7184 H         1 UNK         0.0806 
    115 H115       33.9268   31.3512    2.0377 H         1 UNK         0.3010 
    116 H116       34.9393   33.4902    3.7691 H         1 UNK         0.0829 
    117 H117       36.4693   31.7565    2.7661 H         1 UNK         0.0813 
    118 H118       36.5077   31.7064    4.5181 H         1 UNK         0.0813 
    119 H119       35.6040   30.4882    3.6305 H         1 UNK         0.0813 
    120 H120       34.9611   33.2690    6.1022 H         1 UNK         0.3038 
    121 H121       32.4869   32.6328    7.3148 H         1 UNK         0.0769 
    122 H122       35.2443   33.0794    8.5865 H         1 UNK         0.0811 
    123 H123       33.7101   33.1151    9.4438 H         1 UNK         0.0811 
    124 H124       34.0527   34.3295    8.2245 H         1 UNK         0.0811 
    125 H125       35.3314   30.6373    6.8065 H         1 UNK         0.3204 
    126 H126       34.5825   28.4745    8.5792 H         1 UNK         0.0748 
    127 H127       36.3795   27.2488    7.3554 H         1 UNK         0.0771 
    128 H128       36.4944   28.5492    6.1782 H         1 UNK         0.0771 
    129 H129       36.9394   28.8333    7.8622 H         1 UNK         0.0771 
    130 H130       33.6602   29.4168    5.3029 H         1 UNK         0.2980 
    131 H131       32.5270   26.7902    4.6268 H         1 UNK         0.0545 
    132 H132       31.3671   30.0859    5.5876 H         1 UNK         0.3459 
    133 H133       29.7275   29.5525    5.9016 H         1 UNK         0.3459 
    134 H134       31.8833   27.8244    2.5020 H         1 UNK         0.0616 
    135 H135       32.4052   29.4036    3.0438 H         1 UNK         0.0616 
    136 H136       35.0634   28.2971    0.2620 H         1 UNK         0.0634 
    137 H137       33.8173   29.4544    0.6672 H         1 UNK         0.0634 
@<TRIPOS>BOND
     1    1    2 1    
     2    1   72 1    
     3    1   73 1    
     4    1   74 1    
     5    2    3 2    
     6    2    4 am   BACKBONE|DICT|INTERRES
     7    4    5 1    
     8    4   75 1    
     9    5    6 1    
    10    5   35 1    
    11    5   76 1    
    12    6    7 1    
    13    6   77 1    
    14    6   78 1    
    15    7    8 1    
    16    8    9 1    
    17    8   79 1    
    18    8   80 1    
    19    9   10 ar   
    20    9   14 ar   
    21   10   11 ar   
    22   10   81 1    
    23   11   12 ar   
    24   11   71 1    
    25   12   13 ar   
    26   12   82 1    
    27   13   14 ar   
    28   13   15 1    
    29   14   83 1    
    30   15   16 1    
    31   15   84 1    
    32   15   85 1    
    33   16   17 1    
    34   17   18 1    
    35   17   86 1    
    36   17   87 1    
    37   18   19 1    
    38   18   37 1    
    39   18   88 1    
    40   19   20 am   BACKBONE|DICT|INTERRES
    41   19   89 1    
    42   20   21 2    
    43   20   22 1    
    44   22   23 1    
    45   22   24 1    
    46   22   90 1    
    47   23   91 1    
    48   23   92 1    
    49   23   93 1    
    50   24   25 am   BACKBONE|DICT|INTERRES
    51   24   94 1    
    52   25   26 2    
    53   25   27 1    
    54   27   28 1    
    55   27   29 1    
    56   27   95 1    
    57   28   96 1    
    58   28   97 1    
    59   28   98 1    
    60   29   30 am   BACKBONE|DICT|INTERRES
    61   29   99 1    
    62   30   31 2    
    63   30   32 1    
    64   32   33 1    
    65   32   34 1    
    66   32  100 1    
    67   33  101 1    
    68   33  102 1    
    69   33  103 1    
    70   34   35 am   BACKBONE|DICT|INTERRES
    71   34  104 1    
    72   35   36 2    
    73   37   38 2    
    74   37   39 am   BACKBONE|DICT|INTERRES
    75   39   40 1    
    76   39  105 1    
    77   40   41 1    
    78   40   42 1    
    79   40  106 1    
    80   41  107 1    
    81   41  108 1    
    82   41  109 1    
    83   42   43 2    
    84   42   44 am   BACKBONE|DICT|INTERRES
    85   44   45 1    
    86   44  110 1    
    87   45   46 1    
    88   45   47 1    
    89   45  111 1    
    90   46  112 1    
    91   46  113 1    
    92   46  114 1    
    93   47   48 2    
    94   47   49 am   BACKBONE|DICT|INTERRES
    95   49   50 1    
    96   49  115 1    
    97   50   51 1    
    98   50   52 1    
    99   50  116 1    
   100   51  117 1    
   101   51  118 1    
   102   51  119 1    
   103   52   53 2    
   104   52   54 am   BACKBONE|DICT|INTERRES
   105   54   55 1    
   106   54  120 1    
   107   55   56 1    
   108   55   57 1    
   109   55  121 1    
   110   56  122 1    
   111   56  123 1    
   112   56  124 1    
   113   57   58 2    
   114   57   59 am   BACKBONE|DICT|INTERRES
   115   59   60 1    
   116   59  125 1    
   117   60   61 1    
   118   60   62 1    
   119   60  126 1    
   120   61  127 1    
   121   61  128 1    
   122   61  129 1    
   123   62   63 2    
   124   62   64 am   BACKBONE|DICT|INTERRES
   125   64   65 1    
   126   64  130 1    
   127   65   66 1    
   128   65   69 1    
   129   65  131 1    
   130   66   67 am   BACKBONE|DICT|INTERRES
   131   66   68 2    
   132   67  132 1    
   133   67  133 1    
   134   69   70 1    
   135   69  134 1    
   136   69  135 1    
   137   70   71 1    
   138   71  136 1    
   139   71  137 1    
@<TRIPOS>SUBSTRUCTURE
     1 UNK         1 GROUP             0       ****    0 ROOT    
