@<TRIPOS>MOLECULE
3R136
137   139    1
SMALL
USER_CHARGES


@<TRIPOS>ATOM
      1 CA         28.0085   16.7419    1.1523 C.3       0 UNK        -0.1979 
      2 C          28.4172   18.0393    0.4699 C.2       0 UNK         0.4864 
      3 O          28.3137   18.1451   -0.7536 O.2       0 UNK        -0.5359 
      4 N          28.8876   19.0220    1.2492 N.am      1 UNK        -0.4318 
      5 CA         29.2607   20.3585    0.7749 C.3       1 UNK         0.0824 
      6 C6         30.1704   21.0782    1.8026 C.3       12 UNK        -0.0944 
      7 S7         31.2329   22.3382    1.0162 S.3       12 UNK        -0.2672 
      8 C8         32.5768   22.5178    2.2433 C.3       12 UNK         0.0333 
      9 C9         32.3283   23.5418    3.3543 C.ar      12 UNK        -0.0807 
     10 C10        33.4341   24.0692    4.0310 C.ar      12 UNK        -0.0894 
     11 C11        33.2707   25.0297    5.0338 C.ar      12 UNK        -0.0804 
     12 C12        31.9863   25.4558    5.3757 C.ar      12 UNK        -0.0824 
     13 C13        30.8700   24.9380    4.7158 C.ar      12 UNK        -0.0762 
     14 C14        31.0456   23.9770    3.7158 C.ar      12 UNK        -0.0782 
     15 C15        29.4773   25.4533    5.0566 C.3       12 UNK         0.0230 
     16 S16        28.6504   26.2211    3.6248 S.3       12 UNK        -0.2608 
     17 C17        29.9829   27.2735    2.9444 C.3       12 UNK        -0.0989 
     18 CA         29.4721   28.5102    2.1760 C.3       5 UNK         0.0716 
     19 N          28.5925   28.1491    1.0618 N.am      5 UNK        -0.4135 
     20 C          28.0947   28.9991    0.1517 C.2       4 UNK         0.5031 
     21 O          28.3939   30.1925    0.0998 O.2       4 UNK        -0.5229 
     22 CA         27.0426   28.4502   -0.8316 C.3       4 UNK         0.0329 
     23 CB         27.6813   28.1941   -2.2060 C.3       4 UNK        -0.2001 
     24 N          26.3605   27.2282   -0.3878 N.am      4 UNK        -0.4303 
     25 C          25.6836   27.0608    0.7591 C.2       3 UNK         0.5044 
     26 O          25.5347   27.9529    1.5958 O.2       3 UNK        -0.5152 
     27 CA         25.0952   25.6630    1.0389 C.3       3 UNK         0.0319 
     28 CB         23.5589   25.7101    0.9980 C.3       3 UNK        -0.2001 
     29 N          25.5641   24.6050    0.1327 N.am      3 UNK        -0.4354 
     30 C          26.8128   24.1193    0.0890 C.2       2 UNK         0.4964 
     31 O          27.7400   24.5451    0.7789 O.2       2 UNK        -0.5047 
     32 CA         27.0786   23.0249   -0.9578 C.3       2 UNK         0.0288 
     33 CB         27.4805   23.6598   -2.3001 C.3       2 UNK        -0.2113 
     34 N          28.1364   22.1073   -0.5307 N.am      2 UNK        -0.4145 
     35 C          28.0034   21.1915    0.4376 C.2       1 UNK         0.5006 
     36 O          26.9521   20.9983    1.0570 O.2       1 UNK        -0.5103 
     37 C          28.8876   29.5705    3.1318 C.2       5 UNK         0.5055 
     38 O          29.6672   30.2710    3.7795 O.2       5 UNK        -0.5220 
     39 N          27.5526   29.7142    3.1681 N.am      6 UNK        -0.4450 
     40 CA         26.8282   30.7461    3.9160 C.3       6 UNK         0.0367 
     41 CB         25.3177   30.5182    3.7516 C.3       6 UNK        -0.1929 
     42 C          27.1969   32.1931    3.5311 C.2       6 UNK         0.5070 
     43 O          26.9654   33.0995    4.3329 O.2       6 UNK        -0.5237 
     44 N          27.7916   32.3983    2.3460 N.am      7 UNK        -0.4739 
     45 CA         28.3520   33.6696    1.8808 C.3       7 UNK         0.0276 
     46 CB         28.5323   33.5993    0.3529 C.3       7 UNK        -0.1927 
     47 C          29.6632   34.0325    2.6136 C.2       7 UNK         0.5013 
     48 O          30.7175   34.1183    1.9831 O.2       7 UNK        -0.5193 
     49 N          29.5618   34.2408    3.9341 N.am      8 UNK        -0.4253 
     50 CA         30.6180   34.6516    4.8675 C.3       8 UNK         0.0242 
     51 CB         31.0802   36.0933    4.5620 C.3       8 UNK        -0.2000 
     52 C          31.7866   33.6485    4.9531 C.2       8 UNK         0.4948 
     53 O          32.9473   34.0474    4.8375 O.2       8 UNK        -0.5275 
     54 N          31.4497   32.3683    5.1765 N.am      9 UNK        -0.4246 
     55 CA         32.3598   31.2232    5.3269 C.3       9 UNK         0.0261 
     56 CB         33.2405   31.3662    6.5872 C.3       9 UNK        -0.1959 
     57 C          33.1720   30.9482    4.0483 C.2       9 UNK         0.5033 
     58 O          34.3964   30.8067    4.0997 O.2       9 UNK        -0.5390 
     59 N          32.4681   30.8685    2.9126 N.am      10 UNK        -0.4215 
     60 CA         33.0330   30.5673    1.5950 C.3       10 UNK         0.0240 
     61 CB         32.1172   31.1475    0.4998 C.3       10 UNK        -0.1982 
     62 C          33.2904   29.0566    1.4334 C.2       10 UNK         0.4970 
     63 O          32.6179   28.3966    0.6405 O.2       10 UNK        -0.4916 
     64 N          34.2434   28.5363    2.2154 N.am      11 UNK        -0.4279 
     65 CA         34.6365   27.1174    2.2666 C.3       11 UNK         0.1003 
     66 C          35.2325   26.5386    0.9492 C.2       11 UNK         0.5709 
     67 N          35.6878   27.3561    0.0068 N.am      11 UNK        -0.7358 
     68 O          35.2848   25.3225    0.7833 O.2       11 UNK        -0.4999 
     69 C69        35.5993   26.8391    3.4518 C.3       12 UNK        -0.0954 
     70 S70        34.8919   27.2699    5.0776 S.3       12 UNK        -0.2268 
     71 C71        34.4768   25.6264    5.7420 C.3       12 UNK         0.0203 
     72 H72        28.5901   15.9099    0.7561 H         1 UNK         0.0888 
     73 H73        28.1644   16.7812    2.2303 H         1 UNK         0.0888 
     74 H74        26.9536   16.5386    0.9697 H         1 UNK         0.0888 
     75 H75        28.9148   18.8884    2.2498 H         1 UNK         0.3017 
     76 H76        29.8281   20.2160   -0.1482 H         1 UNK         0.0873 
     77 H77        29.5863   21.5208    2.6110 H         1 UNK         0.0745 
     78 H78        30.8309   20.3506    2.2772 H         1 UNK         0.0745 
     79 H79        32.8047   21.5500    2.6914 H         1 UNK         0.0705 
     80 H80        33.4712   22.8138    1.6921 H         1 UNK         0.0705 
     81 H81        34.4300   23.7441    3.7618 H         1 UNK         0.1334 
     82 H82        31.8615   26.2088    6.1422 H         1 UNK         0.1417 
     83 H83        30.1708   23.6064    3.2030 H         1 UNK         0.1562 
     84 H84        29.5206   26.1846    5.8653 H         1 UNK         0.0748 
     85 H85        28.8655   24.6267    5.4203 H         1 UNK         0.0748 
     86 H86        30.5905   26.6582    2.2779 H         1 UNK         0.0940 
     87 H87        30.6559   27.5831    3.7469 H         1 UNK         0.0940 
     88 H88        30.3408   28.9803    1.7220 H         1 UNK         0.0703 
     89 H89        28.2821   27.1867    1.0440 H         1 UNK         0.3081 
     90 H90        26.2796   29.2228   -0.9446 H         1 UNK         0.0719 
     91 H91        28.4303   27.4023   -2.1614 H         1 UNK         0.0809 
     92 H92        26.9334   27.9097   -2.9464 H         1 UNK         0.0809 
     93 H93        28.1776   29.0913   -2.5793 H         1 UNK         0.0809 
     94 H94        26.4268   26.4315   -1.0031 H         1 UNK         0.2990 
     95 H95        25.4010   25.3912    2.0517 H         1 UNK         0.0690 
     96 H96        23.1238   24.7528    1.2858 H         1 UNK         0.0788 
     97 H97        23.1889   25.9639    0.0037 H         1 UNK         0.0788 
     98 H98        23.1715   26.4591    1.6903 H         1 UNK         0.0788 
     99 H99        24.8707   24.2134   -0.4894 H         1 UNK         0.2993 
    100 H100       26.1635   22.4458   -1.1017 H         1 UNK         0.0949 
    101 H101       27.6529   22.8995   -3.0624 H         1 UNK         0.0767 
    102 H102       26.6958   24.3180   -2.6755 H         1 UNK         0.0767 
    103 H103       28.3903   24.2553   -2.2087 H         1 UNK         0.0767 
    104 H104       29.0496   22.2503   -0.9376 H         1 UNK         0.3013 
    105 H105       26.9843   29.0864    2.6075 H         1 UNK         0.3121 
    106 H106       27.0822   30.6208    4.9704 H         1 UNK         0.0774 
    107 H107       25.0096   30.6059    2.7088 H         1 UNK         0.0815 
    108 H108       24.7455   31.2489    4.3250 H         1 UNK         0.0815 
    109 H109       25.0245   29.5290    4.1039 H         1 UNK         0.0815 
    110 H110       27.9581   31.5966    1.7481 H         1 UNK         0.2987 
    111 H111       27.6331   34.4640    2.0934 H         1 UNK         0.0949 
    112 H112       29.2460   32.8255    0.0665 H         1 UNK         0.0806 
    113 H113       27.5890   33.3852   -0.1497 H         1 UNK         0.0806 
    114 H114       28.9023   34.5465   -0.0415 H         1 UNK         0.0806 
    115 H115       28.6444   34.0776    4.3424 H         1 UNK         0.3010 
    116 H116       30.1600   34.6625    5.8579 H         1 UNK         0.0829 
    117 H117       31.5807   36.1625    3.5956 H         1 UNK         0.0813 
    118 H118       30.2394   36.7868    4.5548 H         1 UNK         0.0813 
    119 H119       31.7834   36.4464    5.3174 H         1 UNK         0.0813 
    120 H120       30.4656   32.1333    5.1898 H         1 UNK         0.3038 
    121 H121       31.7290   30.3460    5.4779 H         1 UNK         0.0769 
    122 H122       33.8283   30.4623    6.7530 H         1 UNK         0.0811 
    123 H123       33.9426   32.1961    6.5025 H         1 UNK         0.0811 
    124 H124       32.6350   31.5270    7.4790 H         1 UNK         0.0811 
    125 H125       31.4590   30.9446    2.9828 H         1 UNK         0.3204 
    126 H126       33.9992   31.0685    1.5035 H         1 UNK         0.0748 
    127 H127       32.4956   30.9080   -0.4947 H         1 UNK         0.0771 
    128 H128       31.0989   30.7658    0.5610 H         1 UNK         0.0771 
    129 H129       32.0655   32.2340    0.5687 H         1 UNK         0.0771 
    130 H130       34.6958   29.1512    2.8835 H         1 UNK         0.2980 
    131 H131       33.7193   26.5532    2.4454 H         1 UNK         0.0545 
    132 H132       36.0692   26.9672   -0.8409 H         1 UNK         0.3459 
    133 H133       35.6513   28.3543    0.1336 H         1 UNK         0.3459 
    134 H134       35.9020   25.7907    3.4683 H         1 UNK         0.0616 
    135 H135       36.5203   27.4115    3.3275 H         1 UNK         0.0616 
    136 H136       34.2611   25.7237    6.8070 H         1 UNK         0.0634 
    137 H137       35.3422   24.9662    5.6664 H         1 UNK         0.0634 
@<TRIPOS>BOND
     1    1    2 1    
     2    1   72 1    
     3    1   73 1    
     4    1   74 1    
     5    2    3 2    
     6    2    4 am   BACKBONE|DICT|INTERRES
     7    4    5 1    
     8    4   75 1    
     9    5    6 1    
    10    5   35 1    
    11    5   76 1    
    12    6    7 1    
    13    6   77 1    
    14    6   78 1    
    15    7    8 1    
    16    8    9 1    
    17    8   79 1    
    18    8   80 1    
    19    9   10 ar   
    20    9   14 ar   
    21   10   11 ar   
    22   10   81 1    
    23   11   12 ar   
    24   11   71 1    
    25   12   13 ar   
    26   12   82 1    
    27   13   14 ar   
    28   13   15 1    
    29   14   83 1    
    30   15   16 1    
    31   15   84 1    
    32   15   85 1    
    33   16   17 1    
    34   17   18 1    
    35   17   86 1    
    36   17   87 1    
    37   18   19 1    
    38   18   37 1    
    39   18   88 1    
    40   19   20 am   BACKBONE|DICT|INTERRES
    41   19   89 1    
    42   20   21 2    
    43   20   22 1    
    44   22   23 1    
    45   22   24 1    
    46   22   90 1    
    47   23   91 1    
    48   23   92 1    
    49   23   93 1    
    50   24   25 am   BACKBONE|DICT|INTERRES
    51   24   94 1    
    52   25   26 2    
    53   25   27 1    
    54   27   28 1    
    55   27   29 1    
    56   27   95 1    
    57   28   96 1    
    58   28   97 1    
    59   28   98 1    
    60   29   30 am   BACKBONE|DICT|INTERRES
    61   29   99 1    
    62   30   31 2    
    63   30   32 1    
    64   32   33 1    
    65   32   34 1    
    66   32  100 1    
    67   33  101 1    
    68   33  102 1    
    69   33  103 1    
    70   34   35 am   BACKBONE|DICT|INTERRES
    71   34  104 1    
    72   35   36 2    
    73   37   38 2    
    74   37   39 am   BACKBONE|DICT|INTERRES
    75   39   40 1    
    76   39  105 1    
    77   40   41 1    
    78   40   42 1    
    79   40  106 1    
    80   41  107 1    
    81   41  108 1    
    82   41  109 1    
    83   42   43 2    
    84   42   44 am   BACKBONE|DICT|INTERRES
    85   44   45 1    
    86   44  110 1    
    87   45   46 1    
    88   45   47 1    
    89   45  111 1    
    90   46  112 1    
    91   46  113 1    
    92   46  114 1    
    93   47   48 2    
    94   47   49 am   BACKBONE|DICT|INTERRES
    95   49   50 1    
    96   49  115 1    
    97   50   51 1    
    98   50   52 1    
    99   50  116 1    
   100   51  117 1    
   101   51  118 1    
   102   51  119 1    
   103   52   53 2    
   104   52   54 am   BACKBONE|DICT|INTERRES
   105   54   55 1    
   106   54  120 1    
   107   55   56 1    
   108   55   57 1    
   109   55  121 1    
   110   56  122 1    
   111   56  123 1    
   112   56  124 1    
   113   57   58 2    
   114   57   59 am   BACKBONE|DICT|INTERRES
   115   59   60 1    
   116   59  125 1    
   117   60   61 1    
   118   60   62 1    
   119   60  126 1    
   120   61  127 1    
   121   61  128 1    
   122   61  129 1    
   123   62   63 2    
   124   62   64 am   BACKBONE|DICT|INTERRES
   125   64   65 1    
   126   64  130 1    
   127   65   66 1    
   128   65   69 1    
   129   65  131 1    
   130   66   67 am   BACKBONE|DICT|INTERRES
   131   66   68 2    
   132   67  132 1    
   133   67  133 1    
   134   69   70 1    
   135   69  134 1    
   136   69  135 1    
   137   70   71 1    
   138   71  136 1    
   139   71  137 1    
@<TRIPOS>SUBSTRUCTURE
     1 UNK         1 GROUP             0       ****    0 ROOT    
