@<TRIPOS>MOLECULE
3R136
137   139    1
SMALL
USER_CHARGES


@<TRIPOS>ATOM
      1 CA         33.9342   25.9111    1.6651 C.3       0 UNK        -0.1979 
      2 C          32.5864   25.3573    1.2316 C.2       0 UNK         0.4864 
      3 O          32.5379   24.4976    0.3500 O.2       0 UNK        -0.5359 
      4 N          31.4959   25.8415    1.8437 N.am      1 UNK        -0.4318 
      5 CA         30.1008   25.4335    1.6287 C.3       1 UNK         0.0824 
      6 C6         29.8801   23.9091    1.8528 C.3       12 UNK        -0.0944 
      7 S7         28.1294   23.4502    2.0570 S.3       12 UNK        -0.2672 
      8 C8         27.9902   23.2323    3.8605 C.3       12 UNK         0.0333 
      9 C9         28.1479   24.5420    4.6228 C.ar      12 UNK        -0.0807 
     10 C10        29.3952   24.9100    5.1327 C.ar      12 UNK        -0.0894 
     11 C11        29.5493   26.0977    5.8523 C.ar      12 UNK        -0.0804 
     12 C12        28.4338   26.9118    6.0765 C.ar      12 UNK        -0.0824 
     13 C13        27.1715   26.5499    5.5924 C.ar      12 UNK        -0.0762 
     14 C14        27.0405   25.3629    4.8604 C.ar      12 UNK        -0.0782 
     15 C15        25.9520   27.3950    5.9647 C.3       12 UNK         0.0230 
     16 S16        24.7086   27.5807    4.6389 S.3       12 UNK        -0.2608 
     17 C17        25.4008   28.9380    3.6367 C.3       12 UNK        -0.0989 
     18 CA         26.1256   28.4431    2.3571 C.3       5 UNK         0.0716 
     19 N          25.2266   27.7669    1.4149 N.am      5 UNK        -0.4135 
     20 C          25.1939   26.4495    1.2016 C.2       4 UNK         0.5031 
     21 O          25.7219   25.6237    1.9414 O.2       4 UNK        -0.5229 
     22 CA         24.5263   25.9534   -0.0871 C.3       4 UNK         0.0329 
     23 CB         24.0751   27.0731   -1.0551 C.3       4 UNK        -0.2001 
     24 N          25.5100   25.0858   -0.7257 N.am      4 UNK        -0.4303 
     25 C          25.2866   24.1821   -1.6823 C.2       3 UNK         0.5044 
     26 O          24.1773   23.9725   -2.1771 O.2       3 UNK        -0.5152 
     27 CA         26.5062   23.3562   -2.1466 C.3       3 UNK         0.0319 
     28 CB         26.3600   22.8550   -3.5997 C.3       3 UNK        -0.2001 
     29 N          27.8076   24.0195   -1.9586 N.am      3 UNK        -0.4354 
     30 C          28.2265   25.1708   -2.5107 C.2       2 UNK         0.4964 
     31 O          27.5233   25.8906   -3.2214 O.2       2 UNK        -0.5047 
     32 CA         29.6911   25.5610   -2.2228 C.3       2 UNK         0.0288 
     33 CB         30.0628   26.9780   -2.7063 C.3       2 UNK        -0.2113 
     34 N          30.0806   25.3604   -0.8215 N.am      2 UNK        -0.4145 
     35 C          29.5520   25.9281    0.2730 C.2       1 UNK         0.5006 
     36 O          28.6880   26.8084    0.2495 O.2       1 UNK        -0.5103 
     37 C          26.8397   29.5861    1.6018 C.2       5 UNK         0.5055 
     38 O          27.1850   30.6042    2.2028 O.2       5 UNK        -0.5220 
     39 N          27.0292   29.4165    0.2834 N.am      6 UNK        -0.4450 
     40 CA         27.5770   30.4228   -0.6281 C.3       6 UNK         0.0367 
     41 CB         27.2789   30.0093   -2.0787 C.3       6 UNK        -0.1929 
     42 C          29.0778   30.6789   -0.4213 C.2       6 UNK         0.5070 
     43 O          29.5415   31.7825   -0.7090 O.2       6 UNK        -0.5237 
     44 N          29.7983   29.6765    0.0960 N.am      7 UNK        -0.4739 
     45 CA         31.2080   29.7714    0.4730 C.3       7 UNK         0.0276 
     46 CB         32.0518   28.8719   -0.4467 C.3       7 UNK        -0.1927 
     47 C          31.3916   29.4468    1.9627 C.2       7 UNK         0.5013 
     48 O          32.3956   28.8405    2.3352 O.2       7 UNK        -0.5193 
     49 N          30.4387   29.8691    2.8081 N.am      8 UNK        -0.4253 
     50 CA         30.4863   29.6925    4.2663 C.3       8 UNK         0.0242 
     51 CB         29.1773   30.1927    4.8922 C.3       8 UNK        -0.2000 
     52 C          31.6975   30.3635    4.9415 C.2       8 UNK         0.4948 
     53 O          32.1890   29.8581    5.9497 O.2       8 UNK        -0.5275 
     54 N          32.1836   31.4660    4.3550 N.am      9 UNK        -0.4246 
     55 CA         33.3978   32.1664    4.7795 C.3       9 UNK         0.0261 
     56 CB         33.4405   33.5490    4.1083 C.3       9 UNK        -0.1959 
     57 C          34.6949   31.3878    4.4855 C.2       9 UNK         0.5033 
     58 O          35.7058   31.6499    5.1387 O.2       9 UNK        -0.5390 
     59 N          34.6590   30.4554    3.5216 N.am      10 UNK        -0.4215 
     60 CA         35.8058   29.6400    3.1143 C.3       10 UNK         0.0240 
     61 CB         35.7014   29.3385    1.6099 C.3       10 UNK        -0.1982 
     62 C          35.9442   28.3429    3.9320 C.2       10 UNK         0.4970 
     63 O          36.9216   27.6211    3.7300 O.2       10 UNK        -0.4916 
     64 N          34.9906   28.0597    4.8317 N.am      11 UNK        -0.4279 
     65 CA         35.0188   26.9028    5.7418 C.3       11 UNK         0.1003 
     66 C          36.1543   26.9418    6.8082 C.2       11 UNK         0.5709 
     67 N          36.7709   28.0852    7.0864 N.am      11 UNK        -0.7358 
     68 O          36.4831   25.9111    7.3909 O.2       11 UNK        -0.4999 
     69 C69        33.6503   26.6812    6.4336 C.3       12 UNK        -0.0954 
     70 S70        32.2766   26.3885    5.2741 S.3       12 UNK        -0.2268 
     71 C71        30.8975   26.4596    6.4635 C.3       12 UNK         0.0203 
     72 H72        34.4156   26.4189    0.8305 H         1 UNK         0.0888 
     73 H73        33.8357   26.6180    2.4878 H         1 UNK         0.0888 
     74 H74        34.5851   25.1021    1.9950 H         1 UNK         0.0888 
     75 H75        31.6261   26.5803    2.5245 H         1 UNK         0.3017 
     76 H76        29.5334   25.9622    2.3968 H         1 UNK         0.0873 
     77 H77        30.2842   23.3207    1.0281 H         1 UNK         0.0745 
     78 H78        30.4325   23.5783    2.7325 H         1 UNK         0.0745 
     79 H79        27.0142   22.7978    4.0818 H         1 UNK         0.0705 
     80 H80        28.7278   22.5019    4.1967 H         1 UNK         0.0705 
     81 H81        30.2496   24.2650    4.9812 H         1 UNK         0.1334 
     82 H82        28.5410   27.8103    6.6682 H         1 UNK         0.1417 
     83 H83        26.0700   25.0646    4.4878 H         1 UNK         0.1562 
     84 H84        26.2548   28.3834    6.3135 H         1 UNK         0.0748 
     85 H85        25.4652   26.9146    6.8143 H         1 UNK         0.0748 
     86 H86        26.0667   29.5284    4.2661 H         1 UNK         0.0940 
     87 H87        24.5830   29.6087    3.3674 H         1 UNK         0.0940 
     88 H88        26.9223   27.7599    2.6620 H         1 UNK         0.0703 
     89 H89        24.7296   28.3717    0.7764 H         1 UNK         0.3081 
     90 H90        23.6595   25.3562    0.2026 H         1 UNK         0.0719 
     91 H91        24.9140   27.6792   -1.3995 H         1 UNK         0.0809 
     92 H92        23.5949   26.6560   -1.9403 H         1 UNK         0.0809 
     93 H93        23.3430   27.7340   -0.5897 H         1 UNK         0.0809 
     94 H94        26.4399   25.1425   -0.3289 H         1 UNK         0.2990 
     95 H95        26.5255   22.4775   -1.5001 H         1 UNK         0.0690 
     96 H96        27.2150   22.2488   -3.8990 H         1 UNK         0.0788 
     97 H97        26.2712   23.6822   -4.3047 H         1 UNK         0.0788 
     98 H98        25.4707   22.2339   -3.7143 H         1 UNK         0.0788 
     99 H99        28.4605   23.5234   -1.3678 H         1 UNK         0.2993 
    100 H100       30.2915   24.8610   -2.8060 H         1 UNK         0.0949 
    101 H101       29.5844   27.7518   -2.1088 H         1 UNK         0.0767 
    102 H102       31.1398   27.1332   -2.6574 H         1 UNK         0.0767 
    103 H103       29.7684   27.1353   -3.7447 H         1 UNK         0.0767 
    104 H104       30.8609   24.7277   -0.6615 H         1 UNK         0.3013 
    105 H105       26.8373   28.5070   -0.1124 H         1 UNK         0.3121 
    106 H106       27.0629   31.3669   -0.4345 H         1 UNK         0.0774 
    107 H107       27.6769   29.0224   -2.3130 H         1 UNK         0.0815 
    108 H108       27.7164   30.7154   -2.7859 H         1 UNK         0.0815 
    109 H109       26.2058   29.9877   -2.2694 H         1 UNK         0.0815 
    110 H110       29.3339   28.7928    0.2836 H         1 UNK         0.2987 
    111 H111       31.5686   30.7947    0.3496 H         1 UNK         0.0949 
    112 H112       31.7871   27.8215   -0.3401 H         1 UNK         0.0806 
    113 H113       31.9198   29.1493   -1.4923 H         1 UNK         0.0806 
    114 H114       33.1147   28.9664   -0.2258 H         1 UNK         0.0806 
    115 H115       29.6329   30.3514    2.4310 H         1 UNK         0.3010 
    116 H116       30.5637   28.6222    4.4592 H         1 UNK         0.0829 
    117 H117       28.3368   29.5852    4.5624 H         1 UNK         0.0813 
    118 H118       29.2113   30.1313    5.9808 H         1 UNK         0.0813 
    119 H119       28.9696   31.2304    4.6285 H         1 UNK         0.0813 
    120 H120       31.7071   31.8268    3.5413 H         1 UNK         0.3038 
    121 H121       33.3441   32.3130    5.8606 H         1 UNK         0.0769 
    122 H122       33.4837   33.4705    3.0212 H         1 UNK         0.0811 
    123 H123       34.3189   34.1110    4.4289 H         1 UNK         0.0811 
    124 H124       32.5655   34.1448    4.3691 H         1 UNK         0.0811 
    125 H125       33.7763   30.2325    3.0751 H         1 UNK         0.3204 
    126 H126       36.7237   30.2108    3.2705 H         1 UNK         0.0748 
    127 H127       36.5771   28.7919    1.2573 H         1 UNK         0.0771 
    128 H128       34.8277   28.7316    1.3814 H         1 UNK         0.0771 
    129 H129       35.6358   30.2554    1.0241 H         1 UNK         0.0771 
    130 H130       34.2068   28.6877    4.9393 H         1 UNK         0.2980 
    131 H131       35.2183   26.0233    5.1265 H         1 UNK         0.0545 
    132 H132       37.5056   28.0941    7.7760 H         1 UNK         0.3459 
    133 H133       36.5069   28.9373    6.6178 H         1 UNK         0.3459 
    134 H134       33.6954   25.8201    7.1033 H         1 UNK         0.0616 
    135 H135       33.4029   27.5428    7.0568 H         1 UNK         0.0616 
    136 H136       31.0990   25.7709    7.2849 H         1 UNK         0.0634 
    137 H137       30.8668   27.4610    6.8961 H         1 UNK         0.0634 
@<TRIPOS>BOND
     1    1    2 1    
     2    1   72 1    
     3    1   73 1    
     4    1   74 1    
     5    2    3 2    
     6    2    4 am   BACKBONE|DICT|INTERRES
     7    4    5 1    
     8    4   75 1    
     9    5    6 1    
    10    5   35 1    
    11    5   76 1    
    12    6    7 1    
    13    6   77 1    
    14    6   78 1    
    15    7    8 1    
    16    8    9 1    
    17    8   79 1    
    18    8   80 1    
    19    9   10 ar   
    20    9   14 ar   
    21   10   11 ar   
    22   10   81 1    
    23   11   12 ar   
    24   11   71 1    
    25   12   13 ar   
    26   12   82 1    
    27   13   14 ar   
    28   13   15 1    
    29   14   83 1    
    30   15   16 1    
    31   15   84 1    
    32   15   85 1    
    33   16   17 1    
    34   17   18 1    
    35   17   86 1    
    36   17   87 1    
    37   18   19 1    
    38   18   37 1    
    39   18   88 1    
    40   19   20 am   BACKBONE|DICT|INTERRES
    41   19   89 1    
    42   20   21 2    
    43   20   22 1    
    44   22   23 1    
    45   22   24 1    
    46   22   90 1    
    47   23   91 1    
    48   23   92 1    
    49   23   93 1    
    50   24   25 am   BACKBONE|DICT|INTERRES
    51   24   94 1    
    52   25   26 2    
    53   25   27 1    
    54   27   28 1    
    55   27   29 1    
    56   27   95 1    
    57   28   96 1    
    58   28   97 1    
    59   28   98 1    
    60   29   30 am   BACKBONE|DICT|INTERRES
    61   29   99 1    
    62   30   31 2    
    63   30   32 1    
    64   32   33 1    
    65   32   34 1    
    66   32  100 1    
    67   33  101 1    
    68   33  102 1    
    69   33  103 1    
    70   34   35 am   BACKBONE|DICT|INTERRES
    71   34  104 1    
    72   35   36 2    
    73   37   38 2    
    74   37   39 am   BACKBONE|DICT|INTERRES
    75   39   40 1    
    76   39  105 1    
    77   40   41 1    
    78   40   42 1    
    79   40  106 1    
    80   41  107 1    
    81   41  108 1    
    82   41  109 1    
    83   42   43 2    
    84   42   44 am   BACKBONE|DICT|INTERRES
    85   44   45 1    
    86   44  110 1    
    87   45   46 1    
    88   45   47 1    
    89   45  111 1    
    90   46  112 1    
    91   46  113 1    
    92   46  114 1    
    93   47   48 2    
    94   47   49 am   BACKBONE|DICT|INTERRES
    95   49   50 1    
    96   49  115 1    
    97   50   51 1    
    98   50   52 1    
    99   50  116 1    
   100   51  117 1    
   101   51  118 1    
   102   51  119 1    
   103   52   53 2    
   104   52   54 am   BACKBONE|DICT|INTERRES
   105   54   55 1    
   106   54  120 1    
   107   55   56 1    
   108   55   57 1    
   109   55  121 1    
   110   56  122 1    
   111   56  123 1    
   112   56  124 1    
   113   57   58 2    
   114   57   59 am   BACKBONE|DICT|INTERRES
   115   59   60 1    
   116   59  125 1    
   117   60   61 1    
   118   60   62 1    
   119   60  126 1    
   120   61  127 1    
   121   61  128 1    
   122   61  129 1    
   123   62   63 2    
   124   62   64 am   BACKBONE|DICT|INTERRES
   125   64   65 1    
   126   64  130 1    
   127   65   66 1    
   128   65   69 1    
   129   65  131 1    
   130   66   67 am   BACKBONE|DICT|INTERRES
   131   66   68 2    
   132   67  132 1    
   133   67  133 1    
   134   69   70 1    
   135   69  134 1    
   136   69  135 1    
   137   70   71 1    
   138   71  136 1    
   139   71  137 1    
@<TRIPOS>SUBSTRUCTURE
     1 UNK         1 GROUP             0       ****    0 ROOT    
