@<TRIPOS>MOLECULE
3R136
137   139    1
SMALL
USER_CHARGES


@<TRIPOS>ATOM
      1 CA         27.8268   18.3553   -1.8314 C.3       0 UNK        -0.1979 
      2 C          28.9807   19.3379   -1.6941 C.2       0 UNK         0.4864 
      3 O          30.1387   18.9446   -1.8426 O.2       0 UNK        -0.5359 
      4 N          28.6727   20.6087   -1.4153 N.am      1 UNK        -0.4318 
      5 CA         29.6275   21.7098   -1.2931 C.3       1 UNK         0.0824 
      6 C6         30.4269   21.6775    0.0417 C.3       12 UNK        -0.0944 
      7 S7         32.0710   22.4418   -0.1436 S.3       12 UNK        -0.2672 
      8 C8         32.7049   22.3355    1.5563 C.3       12 UNK         0.0333 
      9 C9         32.1348   23.4328    2.4422 C.ar      12 UNK        -0.0807 
     10 C10        32.5983   24.7452    2.3066 C.ar      12 UNK        -0.0894 
     11 C11        32.1180   25.7553    3.1429 C.ar      12 UNK        -0.0804 
     12 C12        31.1686   25.4454    4.1182 C.ar      12 UNK        -0.0824 
     13 C13        30.6955   24.1391    4.2667 C.ar      12 UNK        -0.0762 
     14 C14        31.1768   23.1361    3.4182 C.ar      12 UNK        -0.0782 
     15 C15        29.7075   23.8036    5.3765 C.3       12 UNK         0.0230 
     16 S16        27.9748   24.0621    4.8777 S.3       12 UNK        -0.2608 
     17 C17        27.8173   25.8809    4.9560 C.3       12 UNK        -0.0989 
     18 CA         27.5263   26.4898    3.5556 C.3       5 UNK         0.0716 
     19 N          26.2323   26.0635    3.0052 N.am      5 UNK        -0.4135 
     20 C          25.0125   26.3285    3.5029 C.2       4 UNK         0.5031 
     21 O          24.8230   26.9167    4.5688 O.2       4 UNK        -0.5229 
     22 CA         23.7958   25.9035    2.6490 C.3       4 UNK         0.0329 
     23 CB         22.5773   26.8255    2.8698 C.3       4 UNK        -0.2001 
     24 N          24.0855   25.7836    1.2125 N.am      4 UNK        -0.4303 
     25 C          24.5992   26.7276    0.4097 C.2       3 UNK         0.5044 
     26 O          24.8841   27.8701    0.7729 O.2       3 UNK        -0.5152 
     27 CA         24.9321   26.2854   -1.0236 C.3       3 UNK         0.0319 
     28 CB         24.3248   27.2531   -2.0533 C.3       3 UNK        -0.2001 
     29 N          26.3777   26.1829   -1.2513 N.am      3 UNK        -0.4354 
     30 C          27.2430   25.4521   -0.5324 C.2       2 UNK         0.4964 
     31 O          26.9411   24.8042    0.4737 O.2       2 UNK        -0.5047 
     32 CA         28.7051   25.4597   -1.0117 C.3       2 UNK         0.0288 
     33 CB         29.5371   26.4409   -0.1699 C.3       2 UNK        -0.2113 
     34 N          29.3216   24.1318   -0.9432 N.am      2 UNK        -0.4145 
     35 C          28.8790   23.0304   -1.5678 C.2       1 UNK         0.5006 
     36 O          27.9192   23.0267   -2.3451 O.2       1 UNK        -0.5103 
     37 C          27.7367   28.0260    3.5135 C.2       5 UNK         0.5055 
     38 O          28.6968   28.5179    4.1093 O.2       5 UNK        -0.5220 
     39 N          26.8819   28.7716    2.7947 N.am      6 UNK        -0.4450 
     40 CA         26.8977   30.2341    2.7154 C.3       6 UNK         0.0367 
     41 CB         25.4542   30.7407    2.5358 C.3       6 UNK        -0.1929 
     42 C          27.8451   30.7301    1.6081 C.2       6 UNK         0.5070 
     43 O          27.4258   31.4645    0.7112 O.2       6 UNK        -0.5237 
     44 N          29.1115   30.3087    1.6832 N.am      7 UNK        -0.4739 
     45 CA         30.1880   30.7543    0.7986 C.3       7 UNK         0.0276 
     46 CB         31.3392   29.7400    0.8742 C.3       7 UNK        -0.1927 
     47 C          30.7094   32.1411    1.2040 C.2       7 UNK         0.5013 
     48 O          30.5771   32.5397    2.3641 O.2       7 UNK        -0.5193 
     49 N          31.3891   32.8108    0.2655 N.am      8 UNK        -0.4253 
     50 CA         32.1966   34.0074    0.5186 C.3       8 UNK         0.0242 
     51 CB         32.2492   34.8590   -0.7642 C.3       8 UNK        -0.2000 
     52 C          33.5954   33.5972    1.0225 C.2       8 UNK         0.4948 
     53 O          34.6005   33.8857    0.3698 O.2       8 UNK        -0.5275 
     54 N          33.6273   32.8859    2.1535 N.am      9 UNK        -0.4246 
     55 CA         34.8090   32.3022    2.7785 C.3       9 UNK         0.0261 
     56 CB         35.1542   30.9677    2.0893 C.3       9 UNK        -0.1959 
     57 C          34.5161   32.0894    4.2673 C.2       9 UNK         0.5033 
     58 O          33.3481   32.0894    4.6664 O.2       9 UNK        -0.5390 
     59 N          35.5774   31.8787    5.0578 N.am      10 UNK        -0.4215 
     60 CA         35.5311   31.6965    6.5155 C.3       10 UNK         0.0240 
     61 CB         36.9658   31.5761    7.0557 C.3       10 UNK        -0.1982 
     62 C          34.6759   30.5082    6.9968 C.2       10 UNK         0.4970 
     63 O          34.1725   30.5510    8.1202 O.2       10 UNK        -0.4916 
     64 N          34.5172   29.4860    6.1470 N.am      11 UNK        -0.4279 
     65 CA         33.6035   28.3554    6.3585 C.3       11 UNK         0.1003 
     66 C          32.0899   28.6990    6.2328 C.2       11 UNK         0.5709 
     67 N          31.7000   29.8436    5.6831 N.am      11 UNK        -0.7358 
     68 O          31.2521   27.9102    6.6620 O.2       11 UNK        -0.4999 
     69 C69        33.9994   27.1224    5.5006 C.3       12 UNK        -0.0954 
     70 S70        34.2544   27.4654    3.7213 S.3       12 UNK        -0.2268 
     71 C71        32.6099   27.1856    2.9879 C.3       12 UNK         0.0203 
     72 H72        27.8253   17.9151   -2.8283 H         1 UNK         0.0888 
     73 H73        27.9303   17.5510   -1.1034 H         1 UNK         0.0888 
     74 H74        26.8612   18.8350   -1.6711 H         1 UNK         0.0888 
     75 H75        27.7035   20.8969   -1.3709 H         1 UNK         0.3017 
     76 H76        30.3302   21.6010   -2.1225 H         1 UNK         0.0873 
     77 H77        29.8736   22.1441    0.8593 H         1 UNK         0.0745 
     78 H78        30.5978   20.6466    0.3553 H         1 UNK         0.0745 
     79 H79        33.7917   22.4273    1.5302 H         1 UNK         0.0705 
     80 H80        32.4940   21.3470    1.9675 H         1 UNK         0.0705 
     81 H81        33.3393   24.9789    1.5541 H         1 UNK         0.1334 
     82 H82        30.8126   26.2265    4.7726 H         1 UNK         0.1417 
     83 H83        30.8214   22.1210    3.5329 H         1 UNK         0.1562 
     84 H84        29.9265   24.3925    6.2689 H         1 UNK         0.0748 
     85 H85        29.8283   22.7605    5.6727 H         1 UNK         0.0748 
     86 H86        28.7202   26.3017    5.3964 H         1 UNK         0.0940 
     87 H87        27.0246   26.1292    5.6623 H         1 UNK         0.0940 
     88 H88        28.2763   26.0940    2.8698 H         1 UNK         0.0703 
     89 H89        26.2940   25.5611    2.1229 H         1 UNK         0.3081 
     90 H90        23.5239   24.9041    2.9915 H         1 UNK         0.0719 
     91 H91        22.8022   27.8602    2.6080 H         1 UNK         0.0809 
     92 H92        21.7238   26.5061    2.2720 H         1 UNK         0.0809 
     93 H93        22.2599   26.8159    3.9133 H         1 UNK         0.0809 
     94 H94        23.9427   24.8624    0.8208 H         1 UNK         0.2990 
     95 H95        24.5023   25.2966   -1.1965 H         1 UNK         0.0690 
     96 H96        24.4854   26.9024   -3.0730 H         1 UNK         0.0788 
     97 H97        24.7531   28.2531   -1.9700 H         1 UNK         0.0788 
     98 H98        23.2474   27.3482   -1.9107 H         1 UNK         0.0788 
     99 H99        26.7335   26.7050   -2.0388 H         1 UNK         0.2993 
    100 H100       28.7319   25.7807   -2.0552 H         1 UNK         0.0949 
    101 H101       29.6191   26.1152    0.8678 H         1 UNK         0.0767 
    102 H102       30.5476   26.5424   -0.5665 H         1 UNK         0.0767 
    103 H103       29.0868   27.4349   -0.1672 H         1 UNK         0.0767 
    104 H104       30.1181   24.0334   -0.3282 H         1 UNK         0.3013 
    105 H105       26.1600   28.3107    2.2476 H         1 UNK         0.3121 
    106 H106       27.2692   30.6400    3.6589 H         1 UNK         0.0774 
    107 H107       25.4187   31.8306    2.5508 H         1 UNK         0.0815 
    108 H108       25.0257   30.4142    1.5876 H         1 UNK         0.0815 
    109 H109       24.8058   30.3839    3.3363 H         1 UNK         0.0815 
    110 H110       29.3709   29.7434    2.4836 H         1 UNK         0.2987 
    111 H111       29.8120   30.7968   -0.2262 H         1 UNK         0.0949 
    112 H112       31.7996   29.7399    1.8628 H         1 UNK         0.0806 
    113 H113       30.9982   28.7292    0.6592 H         1 UNK         0.0806 
    114 H114       32.1232   29.9762    0.1535 H         1 UNK         0.0806 
    115 H115       31.4861   32.3959   -0.6505 H         1 UNK         0.3010 
    116 H116       31.7282   34.6100    1.3002 H         1 UNK         0.0829 
    117 H117       31.2507   35.1626   -1.0791 H         1 UNK         0.0813 
    118 H118       32.8276   35.7699   -0.6037 H         1 UNK         0.0813 
    119 H119       32.7124   34.3197   -1.5914 H         1 UNK         0.0813 
    120 H120       32.7625   32.7241    2.6636 H         1 UNK         0.3038 
    121 H121       35.6462   32.9974    2.6862 H         1 UNK         0.0769 
    122 H122       34.3331   30.2536    2.1637 H         1 UNK         0.0811 
    123 H123       36.0327   30.5028    2.5379 H         1 UNK         0.0811 
    124 H124       35.3738   31.1119    1.0313 H         1 UNK         0.0811 
    125 H125       36.4966   31.8827    4.6381 H         1 UNK         0.3204 
    126 H126       35.0837   32.5989    6.9374 H         1 UNK         0.0748 
    127 H127       36.9674   31.4682    8.1415 H         1 UNK         0.0771 
    128 H128       37.4817   30.7087    6.6417 H         1 UNK         0.0771 
    129 H129       37.5554   32.4628    6.8213 H         1 UNK         0.0771 
    130 H130       34.9583   29.5287    5.2410 H         1 UNK         0.2980 
    131 H131       33.7287   28.0494    7.3991 H         1 UNK         0.0545 
    132 H132       30.7125   30.0259    5.6031 H         1 UNK         0.3459 
    133 H133       32.3673   30.5320    5.3500 H         1 UNK         0.3459 
    134 H134       33.2916   26.3042    5.6329 H         1 UNK         0.0616 
    135 H135       34.9464   26.7320    5.8756 H         1 UNK         0.0616 
    136 H136       32.6702   27.4210    1.9252 H         1 UNK         0.0634 
    137 H137       31.8929   27.8866    3.4166 H         1 UNK         0.0634 
@<TRIPOS>BOND
     1    1    2 1    
     2    1   72 1    
     3    1   73 1    
     4    1   74 1    
     5    2    3 2    
     6    2    4 am   BACKBONE|DICT|INTERRES
     7    4    5 1    
     8    4   75 1    
     9    5    6 1    
    10    5   35 1    
    11    5   76 1    
    12    6    7 1    
    13    6   77 1    
    14    6   78 1    
    15    7    8 1    
    16    8    9 1    
    17    8   79 1    
    18    8   80 1    
    19    9   10 ar   
    20    9   14 ar   
    21   10   11 ar   
    22   10   81 1    
    23   11   12 ar   
    24   11   71 1    
    25   12   13 ar   
    26   12   82 1    
    27   13   14 ar   
    28   13   15 1    
    29   14   83 1    
    30   15   16 1    
    31   15   84 1    
    32   15   85 1    
    33   16   17 1    
    34   17   18 1    
    35   17   86 1    
    36   17   87 1    
    37   18   19 1    
    38   18   37 1    
    39   18   88 1    
    40   19   20 am   BACKBONE|DICT|INTERRES
    41   19   89 1    
    42   20   21 2    
    43   20   22 1    
    44   22   23 1    
    45   22   24 1    
    46   22   90 1    
    47   23   91 1    
    48   23   92 1    
    49   23   93 1    
    50   24   25 am   BACKBONE|DICT|INTERRES
    51   24   94 1    
    52   25   26 2    
    53   25   27 1    
    54   27   28 1    
    55   27   29 1    
    56   27   95 1    
    57   28   96 1    
    58   28   97 1    
    59   28   98 1    
    60   29   30 am   BACKBONE|DICT|INTERRES
    61   29   99 1    
    62   30   31 2    
    63   30   32 1    
    64   32   33 1    
    65   32   34 1    
    66   32  100 1    
    67   33  101 1    
    68   33  102 1    
    69   33  103 1    
    70   34   35 am   BACKBONE|DICT|INTERRES
    71   34  104 1    
    72   35   36 2    
    73   37   38 2    
    74   37   39 am   BACKBONE|DICT|INTERRES
    75   39   40 1    
    76   39  105 1    
    77   40   41 1    
    78   40   42 1    
    79   40  106 1    
    80   41  107 1    
    81   41  108 1    
    82   41  109 1    
    83   42   43 2    
    84   42   44 am   BACKBONE|DICT|INTERRES
    85   44   45 1    
    86   44  110 1    
    87   45   46 1    
    88   45   47 1    
    89   45  111 1    
    90   46  112 1    
    91   46  113 1    
    92   46  114 1    
    93   47   48 2    
    94   47   49 am   BACKBONE|DICT|INTERRES
    95   49   50 1    
    96   49  115 1    
    97   50   51 1    
    98   50   52 1    
    99   50  116 1    
   100   51  117 1    
   101   51  118 1    
   102   51  119 1    
   103   52   53 2    
   104   52   54 am   BACKBONE|DICT|INTERRES
   105   54   55 1    
   106   54  120 1    
   107   55   56 1    
   108   55   57 1    
   109   55  121 1    
   110   56  122 1    
   111   56  123 1    
   112   56  124 1    
   113   57   58 2    
   114   57   59 am   BACKBONE|DICT|INTERRES
   115   59   60 1    
   116   59  125 1    
   117   60   61 1    
   118   60   62 1    
   119   60  126 1    
   120   61  127 1    
   121   61  128 1    
   122   61  129 1    
   123   62   63 2    
   124   62   64 am   BACKBONE|DICT|INTERRES
   125   64   65 1    
   126   64  130 1    
   127   65   66 1    
   128   65   69 1    
   129   65  131 1    
   130   66   67 am   BACKBONE|DICT|INTERRES
   131   66   68 2    
   132   67  132 1    
   133   67  133 1    
   134   69   70 1    
   135   69  134 1    
   136   69  135 1    
   137   70   71 1    
   138   71  136 1    
   139   71  137 1    
@<TRIPOS>SUBSTRUCTURE
     1 UNK         1 GROUP             0       ****    0 ROOT    
