@<TRIPOS>MOLECULE
3R136
137   139    1
SMALL
USER_CHARGES


@<TRIPOS>ATOM
      1 CA         31.4102   24.8385   -2.7254 C.3       0 UNK        -0.1979 
      2 C          30.3718   24.6915   -1.6253 C.2       0 UNK         0.4864 
      3 O          29.3232   25.3358   -1.6872 O.2       0 UNK        -0.5359 
      4 N          30.6436   23.8371   -0.6276 N.am      1 UNK        -0.4318 
      5 CA         29.8453   23.6181    0.5914 C.3       1 UNK         0.0824 
      6 C6         30.5041   22.5792    1.5340 C.3       12 UNK        -0.0944 
      7 S7         32.2288   22.9920    1.9733 S.3       12 UNK        -0.2672 
      8 C8         32.2621   22.6877    3.7699 C.3       12 UNK         0.0333 
      9 C9         31.9995   23.9474    4.5872 C.ar      12 UNK        -0.0807 
     10 C10        33.0734   24.6678    5.1231 C.ar      12 UNK        -0.0894 
     11 C11        32.8478   25.7765    5.9442 C.ar      12 UNK        -0.0804 
     12 C12        31.5332   26.1784    6.1979 C.ar      12 UNK        -0.0824 
     13 C13        30.4453   25.4869    5.6568 C.ar      12 UNK        -0.0762 
     14 C14        30.6897   24.3605    4.8571 C.ar      12 UNK        -0.0782 
     15 C15        29.0439   25.9843    6.0209 C.3       12 UNK         0.0230 
     16 S16        27.6314   25.1305    5.2346 S.3       12 UNK        -0.2608 
     17 C17        27.6483   25.7019    3.4968 C.3       12 UNK        -0.0989 
     18 CA         27.8196   27.2170    3.2038 C.3       5 UNK         0.0716 
     19 N          27.9608   27.4245    1.7549 N.am      5 UNK        -0.4135 
     20 C          28.4212   28.5261    1.1416 C.2       4 UNK         0.5031 
     21 O          28.8215   29.5239    1.7378 O.2       4 UNK        -0.5229 
     22 CA         28.4236   28.5297   -0.3975 C.3       4 UNK         0.0329 
     23 CB         29.8596   28.4941   -0.9442 C.3       4 UNK        -0.2001 
     24 N          27.6562   27.4350   -1.0015 N.am      4 UNK        -0.4303 
     25 C          26.3180   27.3616   -1.0161 C.2       3 UNK         0.5044 
     26 O          25.5936   28.1672   -0.4303 O.2       3 UNK        -0.5152 
     27 CA         25.6767   26.2023   -1.7912 C.3       3 UNK         0.0319 
     28 CB         25.5778   26.5390   -3.2888 C.3       3 UNK        -0.2001 
     29 N          26.3920   24.9331   -1.6170 N.am      3 UNK        -0.4354 
     30 C          25.7852   23.7470   -1.4482 C.2       2 UNK         0.4964 
     31 O          24.5618   23.6069   -1.4105 O.2       2 UNK        -0.5047 
     32 CA         26.6679   22.4890   -1.3098 C.3       2 UNK         0.0288 
     33 CB         26.7250   21.7271   -2.6444 C.3       2 UNK        -0.2113 
     34 N          28.0343   22.7599   -0.8606 N.am      2 UNK        -0.4145 
     35 C          28.3654   23.2407    0.3457 C.2       1 UNK         0.5006 
     36 O          27.5462   23.4160    1.2469 O.2       1 UNK        -0.5103 
     37 C          26.7144   28.1040    3.8341 C.2       5 UNK         0.5055 
     38 O          26.6333   28.2051    5.0586 O.2       5 UNK        -0.5220 
     39 N          25.9161   28.7915    3.0015 N.am      6 UNK        -0.4450 
     40 CA         25.0364   29.8923    3.4069 C.3       6 UNK         0.0367 
     41 CB         24.1536   30.2860    2.2116 C.3       6 UNK        -0.1929 
     42 C          25.7984   31.1251    3.9447 C.2       6 UNK         0.5070 
     43 O          25.1863   31.9642    4.6065 O.2       6 UNK        -0.5237 
     44 N          27.1038   31.2160    3.6613 N.am      7 UNK        -0.4739 
     45 CA         28.0313   32.2220    4.1677 C.3       7 UNK         0.0276 
     46 CB         28.2480   33.2827    3.0698 C.3       7 UNK        -0.1927 
     47 C          29.3441   31.5300    4.5795 C.2       7 UNK         0.5013 
     48 O          29.4235   30.2998    4.5952 O.2       7 UNK        -0.5193 
     49 N          30.3739   32.3310    4.8822 N.am      8 UNK        -0.4253 
     50 CA         31.7400   31.8576    5.1413 C.3       8 UNK         0.0242 
     51 CB         32.5064   32.9424    5.9168 C.3       8 UNK        -0.2000 
     52 C          32.5064   31.4640    3.8609 C.2       8 UNK         0.4948 
     53 O          33.6118   30.9340    3.9641 O.2       8 UNK        -0.5275 
     54 N          31.9256   31.7314    2.6808 N.am      9 UNK        -0.4246 
     55 CA         32.5061   31.5038    1.3533 C.3       9 UNK         0.0261 
     56 CB         31.5153   31.9938    0.2847 C.3       9 UNK        -0.1959 
     57 C          32.9359   30.0517    1.0754 C.2       9 UNK         0.5033 
     58 O          33.9098   29.8447    0.3499 O.2       9 UNK        -0.5390 
     59 N          32.2373   29.0785    1.6776 N.am      10 UNK        -0.4215 
     60 CA         32.5838   27.6542    1.6274 C.3       10 UNK         0.0240 
     61 CB         31.4635   26.8333    2.2788 C.3       10 UNK        -0.1982 
     62 C          33.9287   27.3045    2.2880 C.2       10 UNK         0.4970 
     63 O          34.5304   26.2970    1.9147 O.2       10 UNK        -0.4916 
     64 N          34.3722   28.1215    3.2508 N.am      11 UNK        -0.4279 
     65 CA         35.6079   27.9043    4.0130 C.3       11 UNK         0.1003 
     66 C          36.9062   28.3020    3.2520 C.2       11 UNK         0.5709 
     67 N          36.8328   28.9211    2.0785 N.am      11 UNK        -0.7358 
     68 O          38.0047   28.0329    3.7326 O.2       11 UNK        -0.4999 
     69 C69        35.5516   28.5675    5.4162 C.3       12 UNK        -0.0954 
     70 S70        33.9954   28.2921    6.3329 S.3       12 UNK        -0.2268 
     71 C71        34.0133   26.4923    6.6216 C.3       12 UNK         0.0203 
     72 H72        32.2830   24.2100   -2.5497 H         1 UNK         0.0888 
     73 H73        30.9784   24.5624   -3.6869 H         1 UNK         0.0888 
     74 H74        31.7434   25.8742   -2.7858 H         1 UNK         0.0888 
     75 H75        31.5232   23.3394   -0.6415 H         1 UNK         0.3017 
     76 H76        29.8261   24.5752    1.1133 H         1 UNK         0.0873 
     77 H77        29.9176   22.4801    2.4490 H         1 UNK         0.0745 
     78 H78        30.5060   21.5909    1.0700 H         1 UNK         0.0745 
     79 H79        33.2428   22.2835    4.0252 H         1 UNK         0.0705 
     80 H80        31.5472   21.9079    4.0362 H         1 UNK         0.0705 
     81 H81        34.0861   24.3423    4.9279 H         1 UNK         0.1334 
     82 H82        31.3560   27.0302    6.8408 H         1 UNK         0.1417 
     83 H83        29.8687   23.7860    4.4552 H         1 UNK         0.1562 
     84 H84        28.9758   27.0567    5.8382 H         1 UNK         0.0748 
     85 H85        28.9247   25.8654    7.0986 H         1 UNK         0.0748 
     86 H86        26.7310   25.3378    3.0300 H         1 UNK         0.0940 
     87 H87        28.4590   25.1599    3.0114 H         1 UNK         0.0940 
     88 H88        28.7601   27.5468    3.6471 H         1 UNK         0.0703 
     89 H89        27.6415   26.6696    1.1663 H         1 UNK         0.3081 
     90 H90        27.9690   29.4714   -0.7127 H         1 UNK         0.0719 
     91 H91        30.3920   27.5970   -0.6305 H         1 UNK         0.0809 
     92 H92        29.8710   28.5248   -2.0337 H         1 UNK         0.0809 
     93 H93        30.4337   29.3504   -0.5944 H         1 UNK         0.0809 
     94 H94        28.2086   26.7099   -1.4572 H         1 UNK         0.2990 
     95 H95        24.6609   26.1078   -1.4010 H         1 UNK         0.0690 
     96 H96        26.5633   26.6238   -3.7486 H         1 UNK         0.0788 
     97 H97        25.0598   27.4864   -3.4446 H         1 UNK         0.0788 
     98 H98        25.0213   25.7733   -3.8294 H         1 UNK         0.0788 
     99 H99        27.4075   24.9653   -1.6407 H         1 UNK         0.2993 
    100 H100       26.1942   21.8445   -0.5660 H         1 UNK         0.0949 
    101 H101       27.2059   22.3175   -3.4255 H         1 UNK         0.0767 
    102 H102       27.2729   20.7899   -2.5441 H         1 UNK         0.0767 
    103 H103       25.7224   21.4776   -2.9952 H         1 UNK         0.0767 
    104 H104       28.7684   22.6567   -1.5459 H         1 UNK         0.3013 
    105 H105       26.0193   28.6455    2.0062 H         1 UNK         0.3121 
    106 H106       24.3909   29.5312    4.2102 H         1 UNK         0.0774 
    107 H107       23.4609   31.0839    2.4828 H         1 UNK         0.0815 
    108 H108       24.7500   30.6427    1.3706 H         1 UNK         0.0815 
    109 H109       23.5556   29.4433    1.8639 H         1 UNK         0.0815 
    110 H110       27.5548   30.4584    3.1565 H         1 UNK         0.2987 
    111 H111       27.6198   32.6977    5.0607 H         1 UNK         0.0949 
    112 H112       28.7169   32.8535    2.1831 H         1 UNK         0.0806 
    113 H113       27.3002   33.7231    2.7594 H         1 UNK         0.0806 
    114 H114       28.8768   34.1034    3.4156 H         1 UNK         0.0806 
    115 H115       30.2362   33.3318    4.8742 H         1 UNK         0.3010 
    116 H116       31.6887   30.9647    5.7689 H         1 UNK         0.0829 
    117 H117       33.5138   32.6054    6.1660 H         1 UNK         0.0813 
    118 H118       32.6046   33.8614    5.3376 H         1 UNK         0.0813 
    119 H119       32.0087   33.1863    6.8556 H         1 UNK         0.0813 
    120 H120       31.0107   32.1550    2.7001 H         1 UNK         0.3038 
    121 H121       33.4072   32.1169    1.2884 H         1 UNK         0.0769 
    122 H122       31.8891   31.7943   -0.7208 H         1 UNK         0.0811 
    123 H123       31.3537   33.0694    0.3593 H         1 UNK         0.0811 
    124 H124       30.5451   31.5045    0.3784 H         1 UNK         0.0811 
    125 H125       31.4392   29.3411    2.2412 H         1 UNK         0.3204 
    126 H126       32.6590   27.3613    0.5782 H         1 UNK         0.0748 
    127 H127       31.7638   25.7950    2.4083 H         1 UNK         0.0771 
    128 H128       31.1963   27.2165    3.2641 H         1 UNK         0.0771 
    129 H129       30.5751   26.8203    1.6566 H         1 UNK         0.0771 
    130 H130       33.8597   28.9653    3.4834 H         1 UNK         0.2980 
    131 H131       35.6948   26.8292    4.1776 H         1 UNK         0.0545 
    132 H132       35.9357   29.1411    1.6708 H         1 UNK         0.3459 
    133 H133       37.6820   29.1679    1.5958 H         1 UNK         0.3459 
    134 H134       36.3795   28.2186    6.0359 H         1 UNK         0.0616 
    135 H135       35.6787   29.6476    5.3236 H         1 UNK         0.0616 
    136 H136       34.9680   26.0699    6.3067 H         1 UNK         0.0634 
    137 H137       33.9477   26.3175    7.6962 H         1 UNK         0.0634 
@<TRIPOS>BOND
     1    1    2 1    
     2    1   72 1    
     3    1   73 1    
     4    1   74 1    
     5    2    3 2    
     6    2    4 am   BACKBONE|DICT|INTERRES
     7    4    5 1    
     8    4   75 1    
     9    5    6 1    
    10    5   35 1    
    11    5   76 1    
    12    6    7 1    
    13    6   77 1    
    14    6   78 1    
    15    7    8 1    
    16    8    9 1    
    17    8   79 1    
    18    8   80 1    
    19    9   10 ar   
    20    9   14 ar   
    21   10   11 ar   
    22   10   81 1    
    23   11   12 ar   
    24   11   71 1    
    25   12   13 ar   
    26   12   82 1    
    27   13   14 ar   
    28   13   15 1    
    29   14   83 1    
    30   15   16 1    
    31   15   84 1    
    32   15   85 1    
    33   16   17 1    
    34   17   18 1    
    35   17   86 1    
    36   17   87 1    
    37   18   19 1    
    38   18   37 1    
    39   18   88 1    
    40   19   20 am   BACKBONE|DICT|INTERRES
    41   19   89 1    
    42   20   21 2    
    43   20   22 1    
    44   22   23 1    
    45   22   24 1    
    46   22   90 1    
    47   23   91 1    
    48   23   92 1    
    49   23   93 1    
    50   24   25 am   BACKBONE|DICT|INTERRES
    51   24   94 1    
    52   25   26 2    
    53   25   27 1    
    54   27   28 1    
    55   27   29 1    
    56   27   95 1    
    57   28   96 1    
    58   28   97 1    
    59   28   98 1    
    60   29   30 am   BACKBONE|DICT|INTERRES
    61   29   99 1    
    62   30   31 2    
    63   30   32 1    
    64   32   33 1    
    65   32   34 1    
    66   32  100 1    
    67   33  101 1    
    68   33  102 1    
    69   33  103 1    
    70   34   35 am   BACKBONE|DICT|INTERRES
    71   34  104 1    
    72   35   36 2    
    73   37   38 2    
    74   37   39 am   BACKBONE|DICT|INTERRES
    75   39   40 1    
    76   39  105 1    
    77   40   41 1    
    78   40   42 1    
    79   40  106 1    
    80   41  107 1    
    81   41  108 1    
    82   41  109 1    
    83   42   43 2    
    84   42   44 am   BACKBONE|DICT|INTERRES
    85   44   45 1    
    86   44  110 1    
    87   45   46 1    
    88   45   47 1    
    89   45  111 1    
    90   46  112 1    
    91   46  113 1    
    92   46  114 1    
    93   47   48 2    
    94   47   49 am   BACKBONE|DICT|INTERRES
    95   49   50 1    
    96   49  115 1    
    97   50   51 1    
    98   50   52 1    
    99   50  116 1    
   100   51  117 1    
   101   51  118 1    
   102   51  119 1    
   103   52   53 2    
   104   52   54 am   BACKBONE|DICT|INTERRES
   105   54   55 1    
   106   54  120 1    
   107   55   56 1    
   108   55   57 1    
   109   55  121 1    
   110   56  122 1    
   111   56  123 1    
   112   56  124 1    
   113   57   58 2    
   114   57   59 am   BACKBONE|DICT|INTERRES
   115   59   60 1    
   116   59  125 1    
   117   60   61 1    
   118   60   62 1    
   119   60  126 1    
   120   61  127 1    
   121   61  128 1    
   122   61  129 1    
   123   62   63 2    
   124   62   64 am   BACKBONE|DICT|INTERRES
   125   64   65 1    
   126   64  130 1    
   127   65   66 1    
   128   65   69 1    
   129   65  131 1    
   130   66   67 am   BACKBONE|DICT|INTERRES
   131   66   68 2    
   132   67  132 1    
   133   67  133 1    
   134   69   70 1    
   135   69  134 1    
   136   69  135 1    
   137   70   71 1    
   138   71  136 1    
   139   71  137 1    
@<TRIPOS>SUBSTRUCTURE
     1 UNK         1 GROUP             0       ****    0 ROOT    
