@<TRIPOS>MOLECULE
3R136
137   139    1
SMALL
USER_CHARGES


@<TRIPOS>ATOM
      1 CA         27.1701   19.6340   -2.0031 C.3       0 UNK        -0.1979 
      2 C          28.3245   20.6019   -2.2183 C.2       0 UNK         0.4864 
      3 O          28.8662   20.6715   -3.3229 O.2       0 UNK        -0.5359 
      4 N          28.7093   21.3422   -1.1705 N.am      1 UNK        -0.4318 
      5 CA         29.7499   22.3732   -1.2145 C.3       1 UNK         0.0824 
      6 C6         30.2183   22.7475    0.2134 C.3       12 UNK        -0.0944 
      7 S7         31.8456   23.5735    0.2225 S.3       12 UNK        -0.2672 
      8 C8         32.4653   23.1273    1.8754 C.3       12 UNK         0.0333 
      9 C9         31.6695   23.8235    2.9683 C.ar      12 UNK        -0.0807 
     10 C10        31.9419   25.1565    3.2861 C.ar      12 UNK        -0.0894 
     11 C11        31.1909   25.8206    4.2593 C.ar      12 UNK        -0.0804 
     12 C12        30.1835   25.1305    4.9404 C.ar      12 UNK        -0.0824 
     13 C13        29.8843   23.8044    4.6143 C.ar      12 UNK        -0.0762 
     14 C14        30.6411   23.1514    3.6365 C.ar      12 UNK        -0.0782 
     15 C15        28.7275   23.0807    5.2905 C.3       12 UNK         0.0230 
     16 S16        27.2328   23.0824    4.2415 S.3       12 UNK        -0.2608 
     17 C17        26.3916   24.6299    4.7339 C.3       12 UNK        -0.0989 
     18 CA         26.8636   25.8689    3.9278 C.3       5 UNK         0.0716 
     19 N          26.7685   25.7187    2.4754 N.am      5 UNK        -0.4135 
     20 C          25.6685   25.7435    1.7131 C.2       4 UNK         0.5031 
     21 O          24.5211   25.7502    2.1619 O.2       4 UNK        -0.5229 
     22 CA         25.9036   25.8094    0.1864 C.3       4 UNK         0.0329 
     23 CB         24.8254   26.6484   -0.5307 C.3       4 UNK        -0.2001 
     24 N          27.2504   26.2720   -0.1970 N.am      4 UNK        -0.4303 
     25 C          27.8360   27.4407    0.1253 C.2       3 UNK         0.5044 
     26 O          27.2873   28.3078    0.8045 O.2       3 UNK        -0.5152 
     27 CA         29.3012   27.6606   -0.2983 C.3       3 UNK         0.0319 
     28 CB         30.2163   27.5809    0.9356 C.3       3 UNK        -0.2001 
     29 N          29.7766   26.7029   -1.2984 N.am      3 UNK        -0.4354 
     30 C          29.4247   26.7069   -2.5923 C.2       2 UNK         0.4964 
     31 O          28.7267   27.5794   -3.1089 O.2       2 UNK        -0.5047 
     32 CA         29.9076   25.5222   -3.4516 C.3       2 UNK         0.0288 
     33 CB         31.1762   25.9075   -4.2300 C.3       2 UNK        -0.2113 
     34 N          30.1639   24.2905   -2.6931 N.am      2 UNK        -0.4145 
     35 C          29.2503   23.6158   -1.9795 C.2       1 UNK         0.5006 
     36 O          28.0752   23.9739   -1.8609 O.2       1 UNK        -0.5103 
     37 C          26.3029   27.2114    4.4547 C.2       5 UNK         0.5055 
     38 O          25.8903   27.2883    5.6141 O.2       5 UNK        -0.5220 
     39 N          26.3455   28.2596    3.6195 N.am      6 UNK        -0.4450 
     40 CA         26.1810   29.6535    4.0298 C.3       6 UNK         0.0367 
     41 CB         25.6194   30.4540    2.8416 C.3       6 UNK        -0.1929 
     42 C          27.5402   30.2202    4.4771 C.2       6 UNK         0.5070 
     43 O          28.5703   29.5620    4.3138 O.2       6 UNK        -0.5237 
     44 N          27.5380   31.4514    5.0030 N.am      7 UNK        -0.4739 
     45 CA         28.7414   32.2042    5.3770 C.3       7 UNK         0.0276 
     46 CB         28.3464   33.3245    6.3567 C.3       7 UNK        -0.1927 
     47 C          29.4839   32.7374    4.1330 C.2       7 UNK         0.5013 
     48 O          29.5189   33.9481    3.9037 O.2       7 UNK        -0.5193 
     49 N          30.0229   31.8145    3.3319 N.am      8 UNK        -0.4253 
     50 CA         30.7221   32.0587    2.0762 C.3       8 UNK         0.0242 
     51 CB         29.7569   31.7758    0.9112 C.3       8 UNK        -0.2000 
     52 C          31.9536   31.1507    1.9919 C.2       8 UNK         0.4948 
     53 O          32.0189   30.1336    2.6889 O.2       8 UNK        -0.5275 
     54 N          32.9002   31.5310    1.1211 N.am      9 UNK        -0.4246 
     55 CA         34.1707   30.8480    0.8482 C.3       9 UNK         0.0261 
     56 CB         33.9191   29.5415    0.0593 C.3       9 UNK        -0.1959 
     57 C          34.9899   30.6618    2.1401 C.2       9 UNK         0.5033 
     58 O          35.3370   31.6593    2.7762 O.2       9 UNK        -0.5390 
     59 N          35.2396   29.4053    2.5328 N.am      10 UNK        -0.4215 
     60 CA         35.9171   29.0160    3.7733 C.3       10 UNK         0.0240 
     61 CB         36.0887   27.4877    3.7891 C.3       10 UNK        -0.1982 
     62 C          35.2075   29.4837    5.0592 C.2       10 UNK         0.4970 
     63 O          35.8739   29.6269    6.0851 O.2       10 UNK        -0.4916 
     64 N          33.8914   29.7167    4.9840 N.am      11 UNK        -0.4279 
     65 CA         33.0646   30.2381    6.0803 C.3       11 UNK         0.1003 
     66 C          32.9160   31.7881    6.0462 C.2       11 UNK         0.5709 
     67 N          33.5563   32.5095    5.1314 N.am      11 UNK        -0.7358 
     68 O          32.2085   32.3542    6.8758 O.2       11 UNK        -0.4999 
     69 C69        31.6817   29.5376    6.1349 C.3       12 UNK        -0.0954 
     70 S70        31.7858   27.7165    6.2251 S.3       12 UNK        -0.2268 
     71 C71        31.3998   27.3078    4.4952 C.3       12 UNK         0.0203 
     72 H72        27.4903   18.6144   -2.2160 H         1 UNK         0.0888 
     73 H73        26.7969   19.6651   -0.9796 H         1 UNK         0.0888 
     74 H74        26.3457   19.8796   -2.6719 H         1 UNK         0.0888 
     75 H75        28.2052   21.2639   -0.2991 H         1 UNK         0.3017 
     76 H76        30.5977   21.9494   -1.7583 H         1 UNK         0.0873 
     77 H77        29.4881   23.3761    0.7281 H         1 UNK         0.0745 
     78 H78        30.3075   21.8398    0.8126 H         1 UNK         0.0745 
     79 H79        32.4376   22.0439    2.0020 H         1 UNK         0.0705 
     80 H80        33.5151   23.4155    1.9483 H         1 UNK         0.0705 
     81 H81        32.7135   25.6861    2.7441 H         1 UNK         0.1334 
     82 H82        29.5993   25.6461    5.6906 H         1 UNK         0.1417 
     83 H83        30.4105   22.1267    3.3787 H         1 UNK         0.1562 
     84 H84        28.5087   23.5187    6.2654 H         1 UNK         0.0748 
     85 H85        29.0155   22.0463    5.4841 H         1 UNK         0.0748 
     86 H86        26.5442   24.7793    5.8042 H         1 UNK         0.0940 
     87 H87        25.3173   24.4902    4.6028 H         1 UNK         0.0940 
     88 H88        27.9290   25.9758    4.0992 H         1 UNK         0.0703 
     89 H89        27.6536   25.6874    1.9932 H         1 UNK         0.3081 
     90 H90        25.8222   24.7834   -0.1755 H         1 UNK         0.0719 
     91 H91        24.8068   27.6768   -0.1683 H         1 UNK         0.0809 
     92 H92        24.9953   26.6746   -1.6070 H         1 UNK         0.0809 
     93 H93        23.8309   26.2298   -0.3716 H         1 UNK         0.0809 
     94 H94        27.7704   25.6143   -0.7705 H         1 UNK         0.2990 
     95 H95        29.3743   28.6663   -0.7176 H         1 UNK         0.0690 
     96 H96        31.2522   27.7924    0.6760 H         1 UNK         0.0788 
     97 H97        30.1830   26.5952    1.4011 H         1 UNK         0.0788 
     98 H98        29.9226   28.3093    1.6936 H         1 UNK         0.0788 
     99 H99        30.3717   25.9569   -0.9670 H         1 UNK         0.2993 
    100 H100       29.1147   25.3047   -4.1705 H         1 UNK         0.0949 
    101 H101       31.0109   26.8060   -4.8265 H         1 UNK         0.0767 
    102 H102       32.0144   26.1095   -3.5617 H         1 UNK         0.0767 
    103 H103       31.4763   25.1164   -4.9176 H         1 UNK         0.0767 
    104 H104       31.1127   23.9432   -2.7098 H         1 UNK         0.3013 
    105 H105       26.7277   28.1293    2.6867 H         1 UNK         0.3121 
    106 H106       25.4807   29.7169    4.8652 H         1 UNK         0.0774 
    107 H107       26.3334   30.5097    2.0186 H         1 UNK         0.0815 
    108 H108       25.3783   31.4770    3.1315 H         1 UNK         0.0815 
    109 H109       24.7035   30.0040    2.4579 H         1 UNK         0.0815 
    110 H110       26.6595   31.9440    5.0809 H         1 UNK         0.2987 
    111 H111       29.4257   31.5361    5.9038 H         1 UNK         0.0949 
    112 H112       27.6472   34.0305    5.9069 H         1 UNK         0.0806 
    113 H113       27.8838   32.9196    7.2569 H         1 UNK         0.0806 
    114 H114       29.2246   33.8897    6.6727 H         1 UNK         0.0806 
    115 H115       29.9324   30.8358    3.5940 H         1 UNK         0.3010 
    116 H116       31.0595   33.0965    2.0316 H         1 UNK         0.0829 
    117 H117       29.3910   30.7482    0.9341 H         1 UNK         0.0813 
    118 H118       28.8907   32.4366    0.9478 H         1 UNK         0.0813 
    119 H119       30.2415   31.9302   -0.0536 H         1 UNK         0.0813 
    120 H120       32.7625   32.3975    0.6197 H         1 UNK         0.3038 
    121 H121       34.7539   31.5138    0.2103 H         1 UNK         0.0769 
    122 H122       33.3444   28.8153    0.6335 H         1 UNK         0.0811 
    123 H123       34.8576   29.0699   -0.2353 H         1 UNK         0.0811 
    124 H124       33.3650   29.7416   -0.8579 H         1 UNK         0.0811 
    125 H125       34.8927   28.6550    1.9535 H         1 UNK         0.3204 
    126 H126       36.9077   29.4752    3.7643 H         1 UNK         0.0748 
    127 H127       36.6226   27.1641    4.6838 H         1 UNK         0.0771 
    128 H128       35.1263   26.9736    3.7817 H         1 UNK         0.0771 
    129 H129       36.6633   27.1418    2.9296 H         1 UNK         0.0771 
    130 H130       33.4152   29.6298    4.0922 H         1 UNK         0.2980 
    131 H131       33.5622   30.0192    7.0265 H         1 UNK         0.0545 
    132 H132       33.4495   33.5108    5.1388 H         1 UNK         0.3459 
    133 H133       34.1564   32.0735    4.4414 H         1 UNK         0.3459 
    134 H134       31.1228   29.8709    7.0108 H         1 UNK         0.0616 
    135 H135       31.0819   29.8235    5.2708 H         1 UNK         0.0616 
    136 H136       30.4906   27.8264    4.1928 H         1 UNK         0.0634 
    137 H137       32.1977   27.6902    3.8579 H         1 UNK         0.0634 
@<TRIPOS>BOND
     1    1    2 1    
     2    1   72 1    
     3    1   73 1    
     4    1   74 1    
     5    2    3 2    
     6    2    4 am   BACKBONE|DICT|INTERRES
     7    4    5 1    
     8    4   75 1    
     9    5    6 1    
    10    5   35 1    
    11    5   76 1    
    12    6    7 1    
    13    6   77 1    
    14    6   78 1    
    15    7    8 1    
    16    8    9 1    
    17    8   79 1    
    18    8   80 1    
    19    9   10 ar   
    20    9   14 ar   
    21   10   11 ar   
    22   10   81 1    
    23   11   12 ar   
    24   11   71 1    
    25   12   13 ar   
    26   12   82 1    
    27   13   14 ar   
    28   13   15 1    
    29   14   83 1    
    30   15   16 1    
    31   15   84 1    
    32   15   85 1    
    33   16   17 1    
    34   17   18 1    
    35   17   86 1    
    36   17   87 1    
    37   18   19 1    
    38   18   37 1    
    39   18   88 1    
    40   19   20 am   BACKBONE|DICT|INTERRES
    41   19   89 1    
    42   20   21 2    
    43   20   22 1    
    44   22   23 1    
    45   22   24 1    
    46   22   90 1    
    47   23   91 1    
    48   23   92 1    
    49   23   93 1    
    50   24   25 am   BACKBONE|DICT|INTERRES
    51   24   94 1    
    52   25   26 2    
    53   25   27 1    
    54   27   28 1    
    55   27   29 1    
    56   27   95 1    
    57   28   96 1    
    58   28   97 1    
    59   28   98 1    
    60   29   30 am   BACKBONE|DICT|INTERRES
    61   29   99 1    
    62   30   31 2    
    63   30   32 1    
    64   32   33 1    
    65   32   34 1    
    66   32  100 1    
    67   33  101 1    
    68   33  102 1    
    69   33  103 1    
    70   34   35 am   BACKBONE|DICT|INTERRES
    71   34  104 1    
    72   35   36 2    
    73   37   38 2    
    74   37   39 am   BACKBONE|DICT|INTERRES
    75   39   40 1    
    76   39  105 1    
    77   40   41 1    
    78   40   42 1    
    79   40  106 1    
    80   41  107 1    
    81   41  108 1    
    82   41  109 1    
    83   42   43 2    
    84   42   44 am   BACKBONE|DICT|INTERRES
    85   44   45 1    
    86   44  110 1    
    87   45   46 1    
    88   45   47 1    
    89   45  111 1    
    90   46  112 1    
    91   46  113 1    
    92   46  114 1    
    93   47   48 2    
    94   47   49 am   BACKBONE|DICT|INTERRES
    95   49   50 1    
    96   49  115 1    
    97   50   51 1    
    98   50   52 1    
    99   50  116 1    
   100   51  117 1    
   101   51  118 1    
   102   51  119 1    
   103   52   53 2    
   104   52   54 am   BACKBONE|DICT|INTERRES
   105   54   55 1    
   106   54  120 1    
   107   55   56 1    
   108   55   57 1    
   109   55  121 1    
   110   56  122 1    
   111   56  123 1    
   112   56  124 1    
   113   57   58 2    
   114   57   59 am   BACKBONE|DICT|INTERRES
   115   59   60 1    
   116   59  125 1    
   117   60   61 1    
   118   60   62 1    
   119   60  126 1    
   120   61  127 1    
   121   61  128 1    
   122   61  129 1    
   123   62   63 2    
   124   62   64 am   BACKBONE|DICT|INTERRES
   125   64   65 1    
   126   64  130 1    
   127   65   66 1    
   128   65   69 1    
   129   65  131 1    
   130   66   67 am   BACKBONE|DICT|INTERRES
   131   66   68 2    
   132   67  132 1    
   133   67  133 1    
   134   69   70 1    
   135   69  134 1    
   136   69  135 1    
   137   70   71 1    
   138   71  136 1    
   139   71  137 1    
@<TRIPOS>SUBSTRUCTURE
     1 UNK         1 GROUP             0       ****    0 ROOT    
