@<TRIPOS>MOLECULE
3R136
137   139    1
SMALL
USER_CHARGES


@<TRIPOS>ATOM
      1 CA         31.3416   28.9300   -5.2884 C.3       0 UNK        -0.1979 
      2 C          30.6804   28.4590   -4.0018 C.2       0 UNK         0.4864 
      3 O          30.1521   29.2808   -3.2518 O.2       0 UNK        -0.5359 
      4 N          30.7181   27.1460   -3.7361 N.am      1 UNK        -0.4318 
      5 CA         30.0874   26.5168   -2.5726 C.3       1 UNK         0.0824 
      6 C6         30.6566   25.1012   -2.3150 C.3       12 UNK        -0.0944 
      7 S7         30.5150   24.6459   -0.5567 S.3       12 UNK        -0.2672 
      8 C8         32.2708   24.4993   -0.1004 C.3       12 UNK         0.0333 
      9 C9         32.4417   24.2854    1.3949 C.ar      12 UNK        -0.0807 
     10 C10        33.1851   25.1914    2.1557 C.ar      12 UNK        -0.0894 
     11 C11        33.3335   25.0099    3.5345 C.ar      12 UNK        -0.0804 
     12 C12        32.7230   23.9149    4.1530 C.ar      12 UNK        -0.0824 
     13 C13        31.9777   23.0007    3.4007 C.ar      12 UNK        -0.0762 
     14 C14        31.8571   23.1809    2.0208 C.ar      12 UNK        -0.0782 
     15 C15        31.2844   21.8266    4.0772 C.3       12 UNK         0.0230 
     16 S16        29.4680   21.9697    3.9979 S.3       12 UNK        -0.2608 
     17 C17        29.1849   23.5693    4.8313 C.3       12 UNK        -0.0989 
     18 CA         28.6363   24.6611    3.8636 C.3       5 UNK         0.0716 
     19 N          27.3458   24.3188    3.2504 N.am      5 UNK        -0.4135 
     20 C          26.2053   24.0380    3.8985 C.2       4 UNK         0.5031 
     21 O          26.0840   24.0232    5.1253 O.2       4 UNK        -0.5229 
     22 CA         24.9901   23.7344    3.0010 C.3       4 UNK         0.0329 
     23 CB         23.7654   23.2239    3.7912 C.3       4 UNK        -0.2001 
     24 N          24.6263   24.8841    2.1644 N.am      4 UNK        -0.4303 
     25 C          24.2950   26.1186    2.5765 C.2       3 UNK         0.5044 
     26 O          24.1923   26.4469    3.7587 O.2       3 UNK        -0.5152 
     27 CA         24.0017   27.1576    1.4751 C.3       3 UNK         0.0319 
     28 CB         24.2675   28.6087    1.9298 C.3       3 UNK        -0.2001 
     29 N          24.6712   26.9048    0.1921 N.am      3 UNK        -0.4354 
     30 C          25.9906   26.8457   -0.0427 C.2       2 UNK         0.4964 
     31 O          26.8609   26.8472    0.8365 O.2       2 UNK        -0.5047 
     32 CA         26.3874   26.7963   -1.5258 C.3       2 UNK         0.0288 
     33 CB         25.9078   28.0720   -2.2588 C.3       2 UNK        -0.2113 
     34 N          27.8379   26.6697   -1.6179 N.am      2 UNK        -0.4145 
     35 C          28.5533   26.4859   -2.7322 C.2       1 UNK         0.5006 
     36 O          28.0582   26.2822   -3.8449 O.2       1 UNK        -0.5103 
     37 C          28.5858   26.0599    4.5153 C.2       5 UNK         0.5055 
     38 O          28.9853   26.2113    5.6710 O.2       5 UNK        -0.5220 
     39 N          28.0975   27.0628    3.7713 N.am      6 UNK        -0.4450 
     40 CA         28.0199   28.4530    4.2280 C.3       6 UNK         0.0367 
     41 CB         26.7160   28.6900    5.0149 C.3       6 UNK        -0.1929 
     42 C          28.2260   29.4296    3.0600 C.2       6 UNK         0.5070 
     43 O          27.5485   30.4557    2.9845 O.2       6 UNK        -0.5237 
     44 N          29.1716   29.1006    2.1749 N.am      7 UNK        -0.4739 
     45 CA         29.6376   29.9287    1.0658 C.3       7 UNK         0.0276 
     46 CB         28.6519   29.8660   -0.1148 C.3       7 UNK        -0.1927 
     47 C          31.0502   29.4635    0.6825 C.2       7 UNK         0.5013 
     48 O          31.5995   28.5824    1.3473 O.2       7 UNK        -0.5193 
     49 N          31.6317   30.0936   -0.3479 N.am      8 UNK        -0.4253 
     50 CA         33.0209   29.9827   -0.8297 C.3       8 UNK         0.0242 
     51 CB         33.4345   28.5259   -1.1262 C.3       8 UNK        -0.2000 
     52 C          34.0452   30.6792    0.0874 C.2       8 UNK         0.4948 
     53 O          34.9825   31.2973   -0.4191 O.2       8 UNK        -0.5275 
     54 N          33.8307   30.6092    1.4030 N.am      9 UNK        -0.4246 
     55 CA         34.5366   31.3354    2.4524 C.3       9 UNK         0.0261 
     56 CB         35.8071   30.5629    2.8597 C.3       9 UNK        -0.1959 
     57 C          33.5590   31.5357    3.6223 C.2       9 UNK         0.5033 
     58 O          32.3820   31.1760    3.5080 O.2       9 UNK        -0.5390 
     59 N          34.0468   32.0863    4.7420 N.am      10 UNK        -0.4215 
     60 CA         33.2916   32.2851    5.9871 C.3       10 UNK         0.0240 
     61 CB         33.9968   33.3636    6.8318 C.3       10 UNK        -0.1982 
     62 C          33.0837   30.9640    6.7614 C.2       10 UNK         0.4970 
     63 O          33.5020   30.8461    7.9151 O.2       10 UNK        -0.4916 
     64 N          32.4702   29.9838    6.0913 N.am      11 UNK        -0.4279 
     65 CA         32.2576   28.6106    6.5726 C.3       11 UNK         0.1003 
     66 C          31.0985   28.4600    7.5981 C.2       11 UNK         0.5709 
     67 N          30.2134   29.4394    7.7486 N.am      11 UNK        -0.7358 
     68 O          31.0208   27.4486    8.2914 O.2       11 UNK        -0.4999 
     69 C69        32.0975   27.6237    5.3863 C.3       12 UNK        -0.0954 
     70 S70        33.5288   27.6834    4.2562 S.3       12 UNK        -0.2268 
     71 C71        34.1736   25.9861    4.3463 C.3       12 UNK         0.0203 
     72 H72        31.7801   28.1041   -5.8483 H         1 UNK         0.0888 
     73 H73        30.6089   29.4224   -5.9271 H         1 UNK         0.0888 
     74 H74        32.1327   29.6445   -5.0623 H         1 UNK         0.0888 
     75 H75        31.1301   26.5153   -4.4084 H         1 UNK         0.3017 
     76 H76        30.3275   27.1490   -1.7136 H         1 UNK         0.0873 
     77 H77        30.1605   24.3446   -2.9268 H         1 UNK         0.0745 
     78 H78        31.7095   25.0613   -2.5993 H         1 UNK         0.0745 
     79 H79        32.7969   25.4005   -0.4205 H         1 UNK         0.0705 
     80 H80        32.7189   23.6630   -0.6390 H         1 UNK         0.0705 
     81 H81        33.6442   26.0477    1.6800 H         1 UNK         0.1334 
     82 H82        32.8261   23.7756    5.2206 H         1 UNK         0.1417 
     83 H83        31.2772   22.4782    1.4375 H         1 UNK         0.1562 
     84 H84        31.5900   21.7406    5.1211 H         1 UNK         0.0748 
     85 H85        31.5894   20.8990    3.5907 H         1 UNK         0.0748 
     86 H86        30.1185   23.9008    5.2880 H         1 UNK         0.0940 
     87 H87        28.5053   23.4066    5.6685 H         1 UNK         0.0940 
     88 H88        29.3481   24.7510    3.0407 H         1 UNK         0.0703 
     89 H89        27.3286   24.3314    2.2407 H         1 UNK         0.3081 
     90 H90        25.2951   22.9359    2.3226 H         1 UNK         0.0719 
     91 H91        22.9408   22.9710    3.1249 H         1 UNK         0.0809 
     92 H92        23.4033   23.9634    4.5063 H         1 UNK         0.0809 
     93 H93        24.0147   22.3241    4.3549 H         1 UNK         0.0809 
     94 H94        24.6732   24.7324    1.1668 H         1 UNK         0.2990 
     95 H95        22.9319   27.0723    1.2784 H         1 UNK         0.0690 
     96 H96        23.9492   29.3234    1.1710 H         1 UNK         0.0788 
     97 H97        25.3259   28.7829    2.1222 H         1 UNK         0.0788 
     98 H98        23.7224   28.8488    2.8434 H         1 UNK         0.0788 
     99 H99        24.0522   26.8578   -0.6059 H         1 UNK         0.2993 
    100 H100       25.9310   25.9128   -1.9765 H         1 UNK         0.0949 
    101 H101       24.8248   28.1858   -2.2052 H         1 UNK         0.0767 
    102 H102       26.3503   28.9715   -1.8294 H         1 UNK         0.0767 
    103 H103       26.1625   28.0532   -3.3181 H         1 UNK         0.0767 
    104 H104       28.3037   26.7422   -0.7207 H         1 UNK         0.3013 
    105 H105       27.7695   26.8866    2.8259 H         1 UNK         0.3121 
    106 H106       28.8509   28.6504    4.9086 H         1 UNK         0.0774 
    107 H107       26.6587   29.7144    5.3844 H         1 UNK         0.0815 
    108 H108       25.8359   28.5126    4.3996 H         1 UNK         0.0815 
    109 H109       26.6523   28.0319    5.8815 H         1 UNK         0.0815 
    110 H110       29.7490   28.2831    2.3355 H         1 UNK         0.2987 
    111 H111       29.7170   30.9600    1.4170 H         1 UNK         0.0949 
    112 H112       27.6268   30.0615    0.2002 H         1 UNK         0.0806 
    113 H113       28.8983   30.6030   -0.8794 H         1 UNK         0.0806 
    114 H114       28.6753   28.8907   -0.5912 H         1 UNK         0.0806 
    115 H115       31.0806   30.7889   -0.8323 H         1 UNK         0.3010 
    116 H116       33.0373   30.5207   -1.7789 H         1 UNK         0.0829 
    117 H117       32.7085   28.0259   -1.7649 H         1 UNK         0.0813 
    118 H118       34.3953   28.4962   -1.6412 H         1 UNK         0.0813 
    119 H119       33.5428   27.9360   -0.2159 H         1 UNK         0.0813 
    120 H120       33.0236   30.0858    1.7322 H         1 UNK         0.3038 
    121 H121       34.8132   32.3240    2.0802 H         1 UNK         0.0769 
    122 H122       35.5675   29.5914    3.2914 H         1 UNK         0.0811 
    123 H123       36.3946   31.1134    3.5946 H         1 UNK         0.0811 
    124 H124       36.4564   30.3909    2.0010 H         1 UNK         0.0811 
    125 H125       35.0252   32.3351    4.7703 H         1 UNK         0.3204 
    126 H126       32.2991   32.6639    5.7329 H         1 UNK         0.0748 
    127 H127       33.4400   33.5698    7.7471 H         1 UNK         0.0771 
    128 H128       35.0023   33.0567    7.1233 H         1 UNK         0.0771 
    129 H129       34.0774   34.3047    6.2870 H         1 UNK         0.0771 
    130 H130       32.1999   30.1715    5.1296 H         1 UNK         0.2980 
    131 H131       33.1612   28.3174    7.1109 H         1 UNK         0.0545 
    132 H132       30.2839   30.2808    7.2004 H         1 UNK         0.3459 
    133 H133       29.4737   29.3342    8.4245 H         1 UNK         0.3459 
    134 H134       31.2050   27.8638    4.8068 H         1 UNK         0.0616 
    135 H135       31.9617   26.6023    5.7466 H         1 UNK         0.0616 
    136 H136       34.2450   25.6800    5.3912 H         1 UNK         0.0634 
    137 H137       35.1912   25.9807    3.9538 H         1 UNK         0.0634 
@<TRIPOS>BOND
     1    1    2 1    
     2    1   72 1    
     3    1   73 1    
     4    1   74 1    
     5    2    3 2    
     6    2    4 am   BACKBONE|DICT|INTERRES
     7    4    5 1    
     8    4   75 1    
     9    5    6 1    
    10    5   35 1    
    11    5   76 1    
    12    6    7 1    
    13    6   77 1    
    14    6   78 1    
    15    7    8 1    
    16    8    9 1    
    17    8   79 1    
    18    8   80 1    
    19    9   10 ar   
    20    9   14 ar   
    21   10   11 ar   
    22   10   81 1    
    23   11   12 ar   
    24   11   71 1    
    25   12   13 ar   
    26   12   82 1    
    27   13   14 ar   
    28   13   15 1    
    29   14   83 1    
    30   15   16 1    
    31   15   84 1    
    32   15   85 1    
    33   16   17 1    
    34   17   18 1    
    35   17   86 1    
    36   17   87 1    
    37   18   19 1    
    38   18   37 1    
    39   18   88 1    
    40   19   20 am   BACKBONE|DICT|INTERRES
    41   19   89 1    
    42   20   21 2    
    43   20   22 1    
    44   22   23 1    
    45   22   24 1    
    46   22   90 1    
    47   23   91 1    
    48   23   92 1    
    49   23   93 1    
    50   24   25 am   BACKBONE|DICT|INTERRES
    51   24   94 1    
    52   25   26 2    
    53   25   27 1    
    54   27   28 1    
    55   27   29 1    
    56   27   95 1    
    57   28   96 1    
    58   28   97 1    
    59   28   98 1    
    60   29   30 am   BACKBONE|DICT|INTERRES
    61   29   99 1    
    62   30   31 2    
    63   30   32 1    
    64   32   33 1    
    65   32   34 1    
    66   32  100 1    
    67   33  101 1    
    68   33  102 1    
    69   33  103 1    
    70   34   35 am   BACKBONE|DICT|INTERRES
    71   34  104 1    
    72   35   36 2    
    73   37   38 2    
    74   37   39 am   BACKBONE|DICT|INTERRES
    75   39   40 1    
    76   39  105 1    
    77   40   41 1    
    78   40   42 1    
    79   40  106 1    
    80   41  107 1    
    81   41  108 1    
    82   41  109 1    
    83   42   43 2    
    84   42   44 am   BACKBONE|DICT|INTERRES
    85   44   45 1    
    86   44  110 1    
    87   45   46 1    
    88   45   47 1    
    89   45  111 1    
    90   46  112 1    
    91   46  113 1    
    92   46  114 1    
    93   47   48 2    
    94   47   49 am   BACKBONE|DICT|INTERRES
    95   49   50 1    
    96   49  115 1    
    97   50   51 1    
    98   50   52 1    
    99   50  116 1    
   100   51  117 1    
   101   51  118 1    
   102   51  119 1    
   103   52   53 2    
   104   52   54 am   BACKBONE|DICT|INTERRES
   105   54   55 1    
   106   54  120 1    
   107   55   56 1    
   108   55   57 1    
   109   55  121 1    
   110   56  122 1    
   111   56  123 1    
   112   56  124 1    
   113   57   58 2    
   114   57   59 am   BACKBONE|DICT|INTERRES
   115   59   60 1    
   116   59  125 1    
   117   60   61 1    
   118   60   62 1    
   119   60  126 1    
   120   61  127 1    
   121   61  128 1    
   122   61  129 1    
   123   62   63 2    
   124   62   64 am   BACKBONE|DICT|INTERRES
   125   64   65 1    
   126   64  130 1    
   127   65   66 1    
   128   65   69 1    
   129   65  131 1    
   130   66   67 am   BACKBONE|DICT|INTERRES
   131   66   68 2    
   132   67  132 1    
   133   67  133 1    
   134   69   70 1    
   135   69  134 1    
   136   69  135 1    
   137   70   71 1    
   138   71  136 1    
   139   71  137 1    
@<TRIPOS>SUBSTRUCTURE
     1 UNK         1 GROUP             0       ****    0 ROOT    
