@<TRIPOS>MOLECULE
3R136
137   139    1
SMALL
USER_CHARGES


@<TRIPOS>ATOM
      1 CA         25.5256   24.4471    3.3198 C.3       0 UNK        -0.1979 
      2 C          25.9991   23.1947    2.6019 C.2       0 UNK         0.4864 
      3 O          25.1946   22.3010    2.3338 O.2       0 UNK        -0.5359 
      4 N          27.2992   23.1251    2.2877 N.am      1 UNK        -0.4318 
      5 CA         27.9029   22.0350    1.5086 C.3       1 UNK         0.0824 
      6 C6         29.4272   21.9228    1.7476 C.3       12 UNK        -0.0944 
      7 S7         29.7984   21.4810    3.4780 S.3       12 UNK        -0.2672 
      8 C8         31.6192   21.5511    3.4929 C.3       12 UNK         0.0333 
      9 C9         32.1416   22.9583    3.2387 C.ar      12 UNK        -0.0807 
     10 C10        32.9585   23.2206    2.1359 C.ar      12 UNK        -0.0894 
     11 C11        33.4335   24.5112    1.8846 C.ar      12 UNK        -0.0804 
     12 C12        33.0561   25.5467    2.7509 C.ar      12 UNK        -0.0824 
     13 C13        32.2373   25.3061    3.8578 C.ar      12 UNK        -0.0762 
     14 C14        31.8056   23.9986    4.1080 C.ar      12 UNK        -0.0782 
     15 C15        31.8681   26.4855    4.7593 C.3       12 UNK         0.0230 
     16 S16        30.3996   26.2552    5.8239 S.3       12 UNK        -0.2608 
     17 C17        29.0510   26.0541    4.6104 C.3       12 UNK        -0.0989 
     18 CA         28.6454   27.4031    3.9440 C.3       5 UNK         0.0716 
     19 N          29.2269   27.6276    2.6155 N.am      5 UNK        -0.4135 
     20 C          29.1304   26.8458    1.5334 C.2       4 UNK         0.5031 
     21 O          28.5399   25.7612    1.5035 O.2       4 UNK        -0.5229 
     22 CA         29.7725   27.3973    0.2501 C.3       4 UNK         0.0329 
     23 CB         31.0421   26.6128   -0.1060 C.3       4 UNK        -0.2001 
     24 N          28.8401   27.3256   -0.8687 N.am      4 UNK        -0.4303 
     25 C          27.7076   28.0355   -0.9676 C.2       3 UNK         0.5044 
     26 O          27.3849   28.9143   -0.1693 O.2       3 UNK        -0.5152 
     27 CA         26.7569   27.6561   -2.1200 C.3       3 UNK         0.0319 
     28 CB         27.0891   28.4603   -3.3862 C.3       3 UNK        -0.2001 
     29 N          26.8227   26.2196   -2.4113 N.am      3 UNK        -0.4354 
     30 C          26.4040   25.2788   -1.5530 C.2       2 UNK         0.4964 
     31 O          25.6898   25.5204   -0.5773 O.2       2 UNK        -0.5047 
     32 CA         26.9399   23.8535   -1.7461 C.3       2 UNK         0.0288 
     33 CB         28.0528   23.7165   -2.8105 C.3       2 UNK        -0.2113 
     34 N          27.4341   23.4442   -0.4371 N.am      2 UNK        -0.4145 
     35 C          27.5843   22.1923    0.0077 C.2       1 UNK         0.5006 
     36 O          27.4501   21.1903   -0.6971 O.2       1 UNK        -0.5103 
     37 C          27.1306   27.7035    4.0082 C.2       5 UNK         0.5055 
     38 O          26.6084   27.8457    5.1147 O.2       5 UNK        -0.5220 
     39 N          26.4597   27.8765    2.8575 N.am      6 UNK        -0.4450 
     40 CA         25.2054   28.6287    2.7664 C.3       6 UNK         0.0367 
     41 CB         24.4258   28.2402    1.4992 C.3       6 UNK        -0.1929 
     42 C          25.5361   30.1304    2.8037 C.2       6 UNK         0.5070 
     43 O          24.9779   30.8605    3.6227 O.2       6 UNK        -0.5237 
     44 N          26.5122   30.5398    1.9802 N.am      7 UNK        -0.4739 
     45 CA         27.2807   31.7691    2.1530 C.3       7 UNK         0.0276 
     46 CB         27.9637   32.1334    0.8249 C.3       7 UNK        -0.1927 
     47 C          28.3259   31.5448    3.2579 C.2       7 UNK         0.5013 
     48 O          29.1067   30.5907    3.1698 O.2       7 UNK        -0.5193 
     49 N          28.3052   32.4063    4.2813 N.am      8 UNK        -0.4253 
     50 CA         29.1967   32.3413    5.4401 C.3       8 UNK         0.0242 
     51 CB         28.6672   33.2849    6.5328 C.3       8 UNK        -0.2000 
     52 C          30.6486   32.6989    5.0817 C.2       8 UNK         0.4948 
     53 O          30.8760   33.5203    4.1904 O.2       8 UNK        -0.5275 
     54 N          31.5937   32.0902    5.8137 N.am      9 UNK        -0.4246 
     55 CA         33.0517   32.2677    5.7184 C.3       9 UNK         0.0261 
     56 CB         33.4580   33.7054    6.1096 C.3       9 UNK        -0.1959 
     57 C          33.6681   31.8268    4.3729 C.2       9 UNK         0.5033 
     58 O          34.7824   32.2445    4.0488 O.2       9 UNK        -0.5390 
     59 N          32.9546   30.9792    3.6197 N.am      10 UNK        -0.4215 
     60 CA         33.4184   30.3873    2.3656 C.3       10 UNK         0.0240 
     61 CB         32.2271   29.7320    1.6515 C.3       10 UNK        -0.1982 
     62 C          34.5314   29.3534    2.6017 C.2       10 UNK         0.4970 
     63 O          34.5350   28.6837    3.6371 O.2       10 UNK        -0.4916 
     64 N          35.4213   29.2242    1.6109 N.am      11 UNK        -0.4279 
     65 CA         36.5408   28.2642    1.5578 C.3       11 UNK         0.1003 
     66 C          37.6821   28.5234    2.5893 C.2       11 UNK         0.5709 
     67 N          37.7208   29.6650    3.2669 N.am      11 UNK        -0.7358 
     68 O          38.5728   27.6926    2.7536 O.2       11 UNK        -0.4999 
     69 C69        36.0809   26.7753    1.5411 C.3       12 UNK        -0.0954 
     70 S70        34.8152   26.4345    0.2688 S.3       12 UNK        -0.2268 
     71 C71        34.3433   24.7152    0.6677 C.3       12 UNK         0.0203 
     72 H72        25.2623   25.2153    2.5935 H         1 UNK         0.0888 
     73 H73        24.6465   24.2337    3.9274 H         1 UNK         0.0888 
     74 H74        26.2988   24.8389    3.9774 H         1 UNK         0.0888 
     75 H75        27.9032   23.9168    2.4747 H         1 UNK         0.3017 
     76 H76        27.4473   21.0942    1.8262 H         1 UNK         0.0873 
     77 H77        29.9235   22.8631    1.4985 H         1 UNK         0.0745 
     78 H78        29.8657   21.1572    1.1042 H         1 UNK         0.0745 
     79 H79        32.0083   20.8473    2.7554 H         1 UNK         0.0705 
     80 H80        31.9780   21.2096    4.4647 H         1 UNK         0.0705 
     81 H81        33.2292   22.4143    1.4676 H         1 UNK         0.1334 
     82 H82        33.3936   26.5561    2.5739 H         1 UNK         0.1417 
     83 H83        31.1849   23.7806    4.9654 H         1 UNK         0.1562 
     84 H84        31.7115   27.3775    4.1520 H         1 UNK         0.0748 
     85 H85        32.7236   26.7032    5.4001 H         1 UNK         0.0748 
     86 H86        28.2183   25.6170    5.1638 H         1 UNK         0.0940 
     87 H87        29.3314   25.2959    3.8806 H         1 UNK         0.0940 
     88 H88        29.0703   28.2089    4.5448 H         1 UNK         0.0703 
     89 H89        29.6301   28.5514    2.5093 H         1 UNK         0.3081 
     90 H90        30.0352   28.4470    0.3928 H         1 UNK         0.0719 
     91 H91        30.8512   25.5420   -0.1932 H         1 UNK         0.0809 
     92 H92        31.4785   26.9569   -1.0437 H         1 UNK         0.0809 
     93 H93        31.7988   26.7480    0.6637 H         1 UNK         0.0809 
     94 H94        29.0140   26.6052   -1.5517 H         1 UNK         0.2990 
     95 H95        25.7388   27.9034   -1.8117 H         1 UNK         0.0690 
     96 H96        26.3891   28.2377   -4.1918 H         1 UNK         0.0788 
     97 H97        28.0966   28.2521   -3.7485 H         1 UNK         0.0788 
     98 H98        27.0276   29.5322   -3.1919 H         1 UNK         0.0788 
     99 H99        27.3773   25.9365   -3.2066 H         1 UNK         0.2993 
    100 H100       26.0933   23.2221   -2.0234 H         1 UNK         0.0949 
    101 H101       28.3937   22.6840   -2.8894 H         1 UNK         0.0767 
    102 H102       27.6955   24.0022   -3.8007 H         1 UNK         0.0767 
    103 H103       28.9238   24.3284   -2.5725 H         1 UNK         0.0767 
    104 H104       27.5307   24.2021    0.2319 H         1 UNK         0.3013 
    105 H105       26.9545   27.7229    1.9898 H         1 UNK         0.3121 
    106 H106       24.5790   28.3924    3.6295 H         1 UNK         0.0774 
    107 H107       23.4654   28.7558    1.4660 H         1 UNK         0.0815 
    108 H108       24.9598   28.4978    0.5862 H         1 UNK         0.0815 
    109 H109       24.2198   27.1704    1.4709 H         1 UNK         0.0815 
    110 H110       26.8863   29.8826    1.2983 H         1 UNK         0.2987 
    111 H111       26.6061   32.5806    2.4349 H         1 UNK         0.0949 
    112 H112       28.5324   33.0591    0.9205 H         1 UNK         0.0806 
    113 H113       28.6574   31.3562    0.5004 H         1 UNK         0.0806 
    114 H114       27.2321   32.2794    0.0301 H         1 UNK         0.0806 
    115 H115       27.6509   33.1748    4.2598 H         1 UNK         0.3010 
    116 H116       29.1719   31.3179    5.8218 H         1 UNK         0.0829 
    117 H117       27.6534   33.0179    6.8320 H         1 UNK         0.0813 
    118 H118       29.2894   33.2380    7.4277 H         1 UNK         0.0813 
    119 H119       28.6573   34.3234    6.1987 H         1 UNK         0.0813 
    120 H120       31.2908   31.4372    6.5242 H         1 UNK         0.3038 
    121 H121       33.4802   31.5973    6.4649 H         1 UNK         0.0769 
    122 H122       34.5414   33.7976    6.1961 H         1 UNK         0.0811 
    123 H123       33.0337   33.9905    7.0722 H         1 UNK         0.0811 
    124 H124       33.1300   34.4348    5.3684 H         1 UNK         0.0811 
    125 H125       32.0537   30.6793    3.9609 H         1 UNK         0.3204 
    126 H126       33.8064   31.1904    1.7352 H         1 UNK         0.0748 
    127 H127       32.5258   29.3283    0.6830 H         1 UNK         0.0771 
    128 H128       31.8181   28.9085    2.2361 H         1 UNK         0.0771 
    129 H129       31.4267   30.4504    1.4708 H         1 UNK         0.0771 
    130 H130       35.3351   29.8227    0.8025 H         1 UNK         0.2980 
    131 H131       37.0137   28.4518    0.5934 H         1 UNK         0.0545 
    132 H132       38.4711   29.8248    3.9202 H         1 UNK         0.3459 
    133 H133       36.9961   30.3558    3.1505 H         1 UNK         0.3459 
    134 H134       36.9298   26.1202    1.3379 H         1 UNK         0.0616 
    135 H135       35.7045   26.4819    2.5213 H         1 UNK         0.0616 
    136 H136       35.2516   24.1256    0.7997 H         1 UNK         0.0634 
    137 H137       33.8371   24.3073   -0.2084 H         1 UNK         0.0634 
@<TRIPOS>BOND
     1    1    2 1    
     2    1   72 1    
     3    1   73 1    
     4    1   74 1    
     5    2    3 2    
     6    2    4 am   BACKBONE|DICT|INTERRES
     7    4    5 1    
     8    4   75 1    
     9    5    6 1    
    10    5   35 1    
    11    5   76 1    
    12    6    7 1    
    13    6   77 1    
    14    6   78 1    
    15    7    8 1    
    16    8    9 1    
    17    8   79 1    
    18    8   80 1    
    19    9   10 ar   
    20    9   14 ar   
    21   10   11 ar   
    22   10   81 1    
    23   11   12 ar   
    24   11   71 1    
    25   12   13 ar   
    26   12   82 1    
    27   13   14 ar   
    28   13   15 1    
    29   14   83 1    
    30   15   16 1    
    31   15   84 1    
    32   15   85 1    
    33   16   17 1    
    34   17   18 1    
    35   17   86 1    
    36   17   87 1    
    37   18   19 1    
    38   18   37 1    
    39   18   88 1    
    40   19   20 am   BACKBONE|DICT|INTERRES
    41   19   89 1    
    42   20   21 2    
    43   20   22 1    
    44   22   23 1    
    45   22   24 1    
    46   22   90 1    
    47   23   91 1    
    48   23   92 1    
    49   23   93 1    
    50   24   25 am   BACKBONE|DICT|INTERRES
    51   24   94 1    
    52   25   26 2    
    53   25   27 1    
    54   27   28 1    
    55   27   29 1    
    56   27   95 1    
    57   28   96 1    
    58   28   97 1    
    59   28   98 1    
    60   29   30 am   BACKBONE|DICT|INTERRES
    61   29   99 1    
    62   30   31 2    
    63   30   32 1    
    64   32   33 1    
    65   32   34 1    
    66   32  100 1    
    67   33  101 1    
    68   33  102 1    
    69   33  103 1    
    70   34   35 am   BACKBONE|DICT|INTERRES
    71   34  104 1    
    72   35   36 2    
    73   37   38 2    
    74   37   39 am   BACKBONE|DICT|INTERRES
    75   39   40 1    
    76   39  105 1    
    77   40   41 1    
    78   40   42 1    
    79   40  106 1    
    80   41  107 1    
    81   41  108 1    
    82   41  109 1    
    83   42   43 2    
    84   42   44 am   BACKBONE|DICT|INTERRES
    85   44   45 1    
    86   44  110 1    
    87   45   46 1    
    88   45   47 1    
    89   45  111 1    
    90   46  112 1    
    91   46  113 1    
    92   46  114 1    
    93   47   48 2    
    94   47   49 am   BACKBONE|DICT|INTERRES
    95   49   50 1    
    96   49  115 1    
    97   50   51 1    
    98   50   52 1    
    99   50  116 1    
   100   51  117 1    
   101   51  118 1    
   102   51  119 1    
   103   52   53 2    
   104   52   54 am   BACKBONE|DICT|INTERRES
   105   54   55 1    
   106   54  120 1    
   107   55   56 1    
   108   55   57 1    
   109   55  121 1    
   110   56  122 1    
   111   56  123 1    
   112   56  124 1    
   113   57   58 2    
   114   57   59 am   BACKBONE|DICT|INTERRES
   115   59   60 1    
   116   59  125 1    
   117   60   61 1    
   118   60   62 1    
   119   60  126 1    
   120   61  127 1    
   121   61  128 1    
   122   61  129 1    
   123   62   63 2    
   124   62   64 am   BACKBONE|DICT|INTERRES
   125   64   65 1    
   126   64  130 1    
   127   65   66 1    
   128   65   69 1    
   129   65  131 1    
   130   66   67 am   BACKBONE|DICT|INTERRES
   131   66   68 2    
   132   67  132 1    
   133   67  133 1    
   134   69   70 1    
   135   69  134 1    
   136   69  135 1    
   137   70   71 1    
   138   71  136 1    
   139   71  137 1    
@<TRIPOS>SUBSTRUCTURE
     1 UNK         1 GROUP             0       ****    0 ROOT    
