@<TRIPOS>MOLECULE
3R136
137   139    1
SMALL
USER_CHARGES


@<TRIPOS>ATOM
      1 CA         24.8273   21.1486    1.9250 C.3       0 UNK        -0.1979 
      2 C          26.1471   20.7660    1.2717 C.2       0 UNK         0.4864 
      3 O          26.1445   20.1707    0.1935 O.2       0 UNK        -0.5359 
      4 N          27.2715   21.1011    1.9198 N.am      1 UNK        -0.4318 
      5 CA         28.6358   20.8545    1.4362 C.3       1 UNK         0.0824 
      6 C6         29.6648   21.1173    2.5646 C.3       12 UNK        -0.0944 
      7 S7         31.3653   20.5848    2.1594 S.3       12 UNK        -0.2672 
      8 C8         32.3449   21.4098    3.4583 C.3       12 UNK         0.0333 
      9 C9         32.1819   22.9234    3.4306 C.ar      12 UNK        -0.0807 
     10 C10        32.7696   23.6808    2.4124 C.ar      12 UNK        -0.0894 
     11 C11        32.5815   25.0655    2.3629 C.ar      12 UNK        -0.0804 
     12 C12        31.8027   25.6917    3.3389 C.ar      12 UNK        -0.0824 
     13 C13        31.2198   24.9456    4.3664 C.ar      12 UNK        -0.0762 
     14 C14        31.4220   23.5640    4.4144 C.ar      12 UNK        -0.0782 
     15 C15        30.3524   25.6284    5.4120 C.3       12 UNK         0.0230 
     16 S16        28.5810   25.2483    5.1967 S.3       12 UNK        -0.2608 
     17 C17        28.2547   25.7537    3.4712 C.3       12 UNK        -0.0989 
     18 CA         28.2722   27.2895    3.2472 C.3       5 UNK         0.0716 
     19 N          28.6724   27.6097    1.8748 N.am      5 UNK        -0.4135 
     20 C          29.3488   28.7040    1.4930 C.2       4 UNK         0.5031 
     21 O          29.8170   29.5289    2.2793 O.2       4 UNK        -0.5229 
     22 CA         29.5356   28.9466   -0.0208 C.3       4 UNK         0.0329 
     23 CB         30.9983   28.7279   -0.4400 C.3       4 UNK        -0.2001 
     24 N          28.6841   28.1311   -0.8891 N.am      4 UNK        -0.4303 
     25 C          27.3450   28.1378   -0.9168 C.2       3 UNK         0.5044 
     26 O          26.6543   28.9009   -0.2442 O.2       3 UNK        -0.5152 
     27 CA         26.6752   27.0363   -1.7601 C.3       3 UNK         0.0319 
     28 CB         26.4143   27.5339   -3.1900 C.3       3 UNK        -0.2001 
     29 N          27.4587   25.7916   -1.8036 N.am      3 UNK        -0.4354 
     30 C          27.7813   25.0632   -0.7248 C.2       2 UNK         0.4964 
     31 O          27.4155   25.3379    0.4213 O.2       2 UNK        -0.5047 
     32 CA         28.7416   23.8921   -0.9419 C.3       2 UNK         0.0288 
     33 CB         30.1996   24.3957   -0.9598 C.3       2 UNK        -0.2113 
     34 N          28.5567   22.9463    0.1529 N.am      2 UNK        -0.4145 
     35 C          28.9503   21.6673    0.1590 C.2       1 UNK         0.5006 
     36 O          29.5146   21.1209   -0.7915 O.2       1 UNK        -0.5103 
     37 C          26.9309   27.9553    3.6414 C.2       5 UNK         0.5055 
     38 O          26.5838   27.9370    4.8233 O.2       5 UNK        -0.5220 
     39 N          26.1966   28.5497    2.6827 N.am      6 UNK        -0.4450 
     40 CA         25.0582   29.4322    2.9764 C.3       6 UNK         0.0367 
     41 CB         24.1641   29.5739    1.7343 C.3       6 UNK        -0.1929 
     42 C          25.5318   30.8141    3.4668 C.2       6 UNK         0.5070 
     43 O          24.8249   31.4649    4.2369 O.2       6 UNK        -0.5237 
     44 N          26.7314   31.2170    3.0289 N.am      7 UNK        -0.4739 
     45 CA         27.5099   32.3257    3.5756 C.3       7 UNK         0.0276 
     46 CB         28.3872   32.8930    2.4460 C.3       7 UNK        -0.1927 
     47 C          28.3694   31.8294    4.7541 C.2       7 UNK         0.5013 
     48 O          28.3622   30.6378    5.0731 O.2       7 UNK        -0.5193 
     49 N          29.1316   32.7377    5.3757 N.am      8 UNK        -0.4253 
     50 CA         30.0455   32.4503    6.4892 C.3       8 UNK         0.0242 
     51 CB         30.3538   33.7672    7.2278 C.3       8 UNK        -0.2000 
     52 C          31.3243   31.7032    6.0436 C.2       8 UNK         0.4948 
     53 O          32.4294   32.1986    6.2707 O.2       8 UNK        -0.5275 
     54 N          31.1398   30.5330    5.4123 N.am      9 UNK        -0.4246 
     55 CA         32.1489   29.6355    4.8367 C.3       9 UNK         0.0261 
     56 CB         32.9663   28.9449    5.9474 C.3       9 UNK        -0.1959 
     57 C          33.0288   30.3553    3.7992 C.2       9 UNK         0.5033 
     58 O          34.2415   30.4818    3.9857 O.2       9 UNK        -0.5390 
     59 N          32.3882   30.8338    2.7231 N.am      10 UNK        -0.4215 
     60 CA         32.9912   31.6993    1.6995 C.3       10 UNK         0.0240 
     61 CB         31.8917   32.2591    0.7811 C.3       10 UNK        -0.1982 
     62 C          34.1431   31.0749    0.8850 C.2       10 UNK         0.4970 
     63 O          34.8557   31.8162    0.2066 O.2       10 UNK        -0.4916 
     64 N          34.3297   29.7513    0.9754 N.am      11 UNK        -0.4279 
     65 CA         35.5160   29.0467    0.4687 C.3       11 UNK         0.1003 
     66 C          36.8145   29.2955    1.2952 C.2       11 UNK         0.5709 
     67 N          36.7463   29.8478    2.5025 N.am      11 UNK        -0.7358 
     68 O          37.9076   28.9944    0.8212 O.2       11 UNK        -0.4999 
     69 C69        35.2425   27.5352    0.2479 C.3       12 UNK        -0.0954 
     70 S70        34.7688   26.6333    1.7653 S.3       12 UNK        -0.2268 
     71 C71        33.1975   25.8880    1.2456 C.3       12 UNK         0.0203 
     72 H72        24.9750   21.6674    2.8721 H         1 UNK         0.0888 
     73 H73        24.2587   21.8037    1.2655 H         1 UNK         0.0888 
     74 H74        24.2311   20.2568    2.1167 H         1 UNK         0.0888 
     75 H75        27.2003   21.5733    2.8099 H         1 UNK         0.3017 
     76 H76        28.6942   19.7973    1.1676 H         1 UNK         0.0873 
     77 H77        29.6604   22.1771    2.8213 H         1 UNK         0.0745 
     78 H78        29.3677   20.5860    3.4703 H         1 UNK         0.0745 
     79 H79        32.0577   21.0062    4.4305 H         1 UNK         0.0705 
     80 H80        33.3973   21.1573    3.3216 H         1 UNK         0.0705 
     81 H81        33.3582   23.1884    1.6502 H         1 UNK         0.1334 
     82 H82        31.6440   26.7591    3.2894 H         1 UNK         0.1417 
     83 H83        30.9585   22.9854    5.2022 H         1 UNK         0.1562 
     84 H84        30.4991   26.7089    5.3953 H         1 UNK         0.0748 
     85 H85        30.6625   25.3006    6.4052 H         1 UNK         0.0748 
     86 H86        27.2992   25.3263    3.1606 H         1 UNK         0.0940 
     87 H87        28.9965   25.2651    2.8379 H         1 UNK         0.0940 
     88 H88        29.0235   27.7232    3.9091 H         1 UNK         0.0703 
     89 H89        28.3234   26.9716    1.1674 H         1 UNK         0.3081 
     90 H90        29.2815   29.9942   -0.1945 H         1 UNK         0.0719 
     91 H91        31.2242   27.6713   -0.5776 H         1 UNK         0.0809 
     92 H92        31.2146   29.2335   -1.3813 H         1 UNK         0.0809 
     93 H93        31.6943   29.1176    0.3012 H         1 UNK         0.0809 
     94 H94        29.1573   27.4682   -1.4850 H         1 UNK         0.2990 
     95 H95        25.7139   26.8082   -1.2947 H         1 UNK         0.0690 
     96 H96        25.8642   26.7950   -3.7732 H         1 UNK         0.0788 
     97 H97        27.3423   27.7568   -3.7182 H         1 UNK         0.0788 
     98 H98        25.8167   28.4468   -3.1816 H         1 UNK         0.0788 
     99 H99        27.8020   25.5039   -2.7095 H         1 UNK         0.2993 
    100 H100       28.4983   23.4019   -1.8870 H         1 UNK         0.0949 
    101 H101       30.9031   23.5770   -1.1123 H         1 UNK         0.0767 
    102 H102       30.3626   25.1112   -1.7664 H         1 UNK         0.0767 
    103 H103       30.4649   24.8882   -0.0229 H         1 UNK         0.0767 
    104 H104       28.0474   23.3227    0.9425 H         1 UNK         0.3013 
    105 H105       26.5021   28.5201    1.7149 H         1 UNK         0.3121 
    106 H106       24.4596   28.9808    3.7707 H         1 UNK         0.0774 
    107 H107       24.6651   30.1167    0.9323 H         1 UNK         0.0815 
    108 H108       23.2545   30.1253    1.9755 H         1 UNK         0.0815 
    109 H109       23.8617   28.6013    1.3461 H         1 UNK         0.0815 
    110 H110       27.2472   30.5740    2.4469 H         1 UNK         0.2987 
    111 H111       26.8399   33.1071    3.9410 H         1 UNK         0.0949 
    112 H112       29.0867   32.1456    2.0717 H         1 UNK         0.0806 
    113 H113       27.7793   33.2279    1.6052 H         1 UNK         0.0806 
    114 H114       28.9702   33.7520    2.7794 H         1 UNK         0.0806 
    115 H115       29.1140   33.6927    5.0476 H         1 UNK         0.3010 
    116 H116       29.5299   31.7945    7.1945 H         1 UNK         0.0829 
    117 H117       30.8690   34.4809    6.5836 H         1 UNK         0.0813 
    118 H118       29.4426   34.2407    7.5937 H         1 UNK         0.0813 
    119 H119       30.9925   33.5896    8.0942 H         1 UNK         0.0813 
    120 H120       30.1689   30.2725    5.2438 H         1 UNK         0.3038 
    121 H121       31.6001   28.8614    4.3006 H         1 UNK         0.0769 
    122 H122       33.6675   28.2251    5.5228 H         1 UNK         0.0811 
    123 H123       33.5476   29.6619    6.5283 H         1 UNK         0.0811 
    124 H124       32.3199   28.4010    6.6358 H         1 UNK         0.0811 
    125 H125       31.3988   30.6174    2.6228 H         1 UNK         0.3204 
    126 H126       33.4330   32.5464    2.2287 H         1 UNK         0.0748 
    127 H127       32.3161   32.8676   -0.0189 H         1 UNK         0.0771 
    128 H128       31.3049   31.4710    0.3126 H         1 UNK         0.0771 
    129 H129       31.2102   32.9022    1.3365 H         1 UNK         0.0771 
    130 H130       33.7316   29.2191    1.5873 H         1 UNK         0.2980 
    131 H131       35.7277   29.4615   -0.5188 H         1 UNK         0.0545 
    132 H132       35.8523   30.0813    2.9243 H         1 UNK         0.3459 
    133 H133       37.5970   30.0057    3.0179 H         1 UNK         0.3459 
    134 H134       34.4567   27.4214   -0.5004 H         1 UNK         0.0616 
    135 H135       36.1202   27.0464   -0.1786 H         1 UNK         0.0616 
    136 H136       33.3582   25.2712    0.3599 H         1 UNK         0.0634 
    137 H137       32.5088   26.6797    0.9582 H         1 UNK         0.0634 
@<TRIPOS>BOND
     1    1    2 1    
     2    1   72 1    
     3    1   73 1    
     4    1   74 1    
     5    2    3 2    
     6    2    4 am   BACKBONE|DICT|INTERRES
     7    4    5 1    
     8    4   75 1    
     9    5    6 1    
    10    5   35 1    
    11    5   76 1    
    12    6    7 1    
    13    6   77 1    
    14    6   78 1    
    15    7    8 1    
    16    8    9 1    
    17    8   79 1    
    18    8   80 1    
    19    9   10 ar   
    20    9   14 ar   
    21   10   11 ar   
    22   10   81 1    
    23   11   12 ar   
    24   11   71 1    
    25   12   13 ar   
    26   12   82 1    
    27   13   14 ar   
    28   13   15 1    
    29   14   83 1    
    30   15   16 1    
    31   15   84 1    
    32   15   85 1    
    33   16   17 1    
    34   17   18 1    
    35   17   86 1    
    36   17   87 1    
    37   18   19 1    
    38   18   37 1    
    39   18   88 1    
    40   19   20 am   BACKBONE|DICT|INTERRES
    41   19   89 1    
    42   20   21 2    
    43   20   22 1    
    44   22   23 1    
    45   22   24 1    
    46   22   90 1    
    47   23   91 1    
    48   23   92 1    
    49   23   93 1    
    50   24   25 am   BACKBONE|DICT|INTERRES
    51   24   94 1    
    52   25   26 2    
    53   25   27 1    
    54   27   28 1    
    55   27   29 1    
    56   27   95 1    
    57   28   96 1    
    58   28   97 1    
    59   28   98 1    
    60   29   30 am   BACKBONE|DICT|INTERRES
    61   29   99 1    
    62   30   31 2    
    63   30   32 1    
    64   32   33 1    
    65   32   34 1    
    66   32  100 1    
    67   33  101 1    
    68   33  102 1    
    69   33  103 1    
    70   34   35 am   BACKBONE|DICT|INTERRES
    71   34  104 1    
    72   35   36 2    
    73   37   38 2    
    74   37   39 am   BACKBONE|DICT|INTERRES
    75   39   40 1    
    76   39  105 1    
    77   40   41 1    
    78   40   42 1    
    79   40  106 1    
    80   41  107 1    
    81   41  108 1    
    82   41  109 1    
    83   42   43 2    
    84   42   44 am   BACKBONE|DICT|INTERRES
    85   44   45 1    
    86   44  110 1    
    87   45   46 1    
    88   45   47 1    
    89   45  111 1    
    90   46  112 1    
    91   46  113 1    
    92   46  114 1    
    93   47   48 2    
    94   47   49 am   BACKBONE|DICT|INTERRES
    95   49   50 1    
    96   49  115 1    
    97   50   51 1    
    98   50   52 1    
    99   50  116 1    
   100   51  117 1    
   101   51  118 1    
   102   51  119 1    
   103   52   53 2    
   104   52   54 am   BACKBONE|DICT|INTERRES
   105   54   55 1    
   106   54  120 1    
   107   55   56 1    
   108   55   57 1    
   109   55  121 1    
   110   56  122 1    
   111   56  123 1    
   112   56  124 1    
   113   57   58 2    
   114   57   59 am   BACKBONE|DICT|INTERRES
   115   59   60 1    
   116   59  125 1    
   117   60   61 1    
   118   60   62 1    
   119   60  126 1    
   120   61  127 1    
   121   61  128 1    
   122   61  129 1    
   123   62   63 2    
   124   62   64 am   BACKBONE|DICT|INTERRES
   125   64   65 1    
   126   64  130 1    
   127   65   66 1    
   128   65   69 1    
   129   65  131 1    
   130   66   67 am   BACKBONE|DICT|INTERRES
   131   66   68 2    
   132   67  132 1    
   133   67  133 1    
   134   69   70 1    
   135   69  134 1    
   136   69  135 1    
   137   70   71 1    
   138   71  136 1    
   139   71  137 1    
@<TRIPOS>SUBSTRUCTURE
     1 UNK         1 GROUP             0       ****    0 ROOT    
