@<TRIPOS>MOLECULE
3R136
137   139    1
SMALL
USER_CHARGES


@<TRIPOS>ATOM
      1 CA         29.9663   27.7293    4.3364 C.3       0 UNK        -0.1979 
      2 C          29.3115   26.8281    3.3027 C.2       0 UNK         0.4864 
      3 O          29.2700   27.1816    2.1239 O.2       0 UNK        -0.5359 
      4 N          28.7972   25.6754    3.7565 N.am      1 UNK        -0.4318 
      5 CA         28.2085   24.5813    2.9697 C.3       1 UNK         0.0824 
      6 C6         29.2673   23.7369    2.2138 C.3       12 UNK        -0.0944 
      7 S7         30.4828   23.0002    3.3640 S.3       12 UNK        -0.2672 
      8 C8         31.9995   22.9285    2.3565 C.3       12 UNK         0.0333 
      9 C9         32.4110   24.2943    1.8266 C.ar      12 UNK        -0.0807 
     10 C10        32.8386   25.2963    2.7012 C.ar      12 UNK        -0.0894 
     11 C11        33.1932   26.5588    2.2156 C.ar      12 UNK        -0.0804 
     12 C12        33.0970   26.8197    0.8440 C.ar      12 UNK        -0.0824 
     13 C13        32.6649   25.8253   -0.0410 C.ar      12 UNK        -0.0762 
     14 C14        32.3434   24.5596    0.4571 C.ar      12 UNK        -0.0782 
     15 C15        32.5489   26.1133   -1.5343 C.3       12 UNK         0.0230 
     16 S16        30.9171   25.6591   -2.2177 S.3       12 UNK        -0.2608 
     17 C17        29.8259   26.7594   -1.2624 C.3       12 UNK        -0.0989 
     18 CA         28.4430   26.9372   -1.9358 C.3       5 UNK         0.0716 
     19 N          27.6049   25.7425   -1.8355 N.am      5 UNK        -0.4135 
     20 C          27.0267   25.1229   -2.8687 C.2       4 UNK         0.5031 
     21 O          27.2137   25.4156   -4.0511 O.2       4 UNK        -0.5229 
     22 CA         26.0455   23.9900   -2.5211 C.3       4 UNK         0.0329 
     23 CB         26.8025   22.7410   -2.0379 C.3       4 UNK        -0.2001 
     24 N          25.0270   24.3606   -1.5304 N.am      4 UNK        -0.4303 
     25 C          24.1462   25.3683   -1.6434 C.2       3 UNK         0.5044 
     26 O          24.1285   26.1582   -2.5871 O.2       3 UNK        -0.5152 
     27 CA         23.0734   25.5131   -0.5428 C.3       3 UNK         0.0319 
     28 CB         21.6672   25.3551   -1.1469 C.3       3 UNK        -0.2001 
     29 N          23.2151   24.5369    0.5443 N.am      3 UNK        -0.4354 
     30 C          23.9587   24.6332    1.6553 C.2       2 UNK         0.4964 
     31 O          23.9982   23.7156    2.4754 O.2       2 UNK        -0.5047 
     32 CA         24.7618   25.9190    1.9447 C.3       2 UNK         0.0288 
     33 CB         23.9354   26.8962    2.7969 C.3       2 UNK        -0.2113 
     34 N          25.9999   25.5913    2.6516 N.am      2 UNK        -0.4145 
     35 C          27.0724   25.0660    2.0469 C.2       1 UNK         0.5006 
     36 O          27.1839   24.9917    0.8199 O.2       1 UNK        -0.5103 
     37 C          27.6818   28.1198   -1.3207 C.2       5 UNK         0.5055 
     38 O          27.5033   29.1334   -1.9975 O.2       5 UNK        -0.5220 
     39 N          27.2589   27.9689   -0.0539 N.am      6 UNK        -0.4450 
     40 CA         26.6586   29.0028    0.8027 C.3       6 UNK         0.0367 
     41 CB         25.2626   29.4141    0.2854 C.3       6 UNK        -0.1929 
     42 C          27.6060   30.2049    0.9987 C.2       6 UNK         0.5070 
     43 O          27.1786   31.3584    0.9196 O.2       6 UNK        -0.5237 
     44 N          28.8927   29.9026    1.2067 N.am      7 UNK        -0.4739 
     45 CA         29.9715   30.8786    1.3330 C.3       7 UNK         0.0276 
     46 CB         31.3065   30.1645    1.0727 C.3       7 UNK        -0.1927 
     47 C          29.9749   31.5490    2.7144 C.2       7 UNK         0.5013 
     48 O          29.6545   30.9056    3.7154 O.2       7 UNK        -0.5193 
     49 N          30.3958   32.8176    2.7555 N.am      8 UNK        -0.4253 
     50 CA         30.5652   33.5987    3.9820 C.3       8 UNK         0.0242 
     51 CB         30.2328   35.0736    3.6837 C.3       8 UNK        -0.2000 
     52 C          31.9852   33.4098    4.5475 C.2       8 UNK         0.4948 
     53 O          32.7268   34.3849    4.6866 O.2       8 UNK        -0.5275 
     54 N          32.3532   32.1569    4.8380 N.am      9 UNK        -0.4246 
     55 CA         33.6547   31.7683    5.3724 C.3       9 UNK         0.0261 
     56 CB         34.6601   31.5766    4.2220 C.3       9 UNK        -0.1959 
     57 C          33.5008   30.4765    6.1778 C.2       9 UNK         0.5033 
     58 O          32.7076   29.6124    5.7974 O.2       9 UNK        -0.5390 
     59 N          34.2885   30.3530    7.2512 N.am      10 UNK        -0.4215 
     60 CA         34.3788   29.1606    8.0925 C.3       10 UNK         0.0240 
     61 CB         34.5322   29.5930    9.5635 C.3       10 UNK        -0.1982 
     62 C          35.5513   28.2963    7.6039 C.2       10 UNK         0.4970 
     63 O          36.6080   28.2733    8.2382 O.2       10 UNK        -0.4916 
     64 N          35.3570   27.6518    6.4482 N.am      11 UNK        -0.4279 
     65 CA         36.3420   26.7846    5.7832 C.3       11 UNK         0.1003 
     66 C          36.7367   25.5465    6.6358 C.2       11 UNK         0.5709 
     67 N          37.9883   25.1143    6.5613 N.am      11 UNK        -0.7358 
     68 O          35.9103   24.9521    7.3263 O.2       11 UNK        -0.4999 
     69 C69        35.8545   26.3372    4.3813 C.3       12 UNK        -0.0954 
     70 S70        35.4717   27.7395    3.2775 S.3       12 UNK        -0.2268 
     71 C71        33.6574   27.6471    3.1738 C.3       12 UNK         0.0203 
     72 H72        30.7771   28.3004    3.8860 H         1 UNK         0.0888 
     73 H73        29.2379   28.4346    4.7348 H         1 UNK         0.0888 
     74 H74        30.3831   27.1567    5.1645 H         1 UNK         0.0888 
     75 H75        28.8655   25.4839    4.7460 H         1 UNK         0.3017 
     76 H76        27.7307   23.9165    3.6914 H         1 UNK         0.0873 
     77 H77        29.7684   24.3556    1.4693 H         1 UNK         0.0745 
     78 H78        28.7925   22.9221    1.6640 H         1 UNK         0.0745 
     79 H79        31.8453   22.2229    1.5386 H         1 UNK         0.0705 
     80 H80        32.8088   22.5213    2.9641 H         1 UNK         0.0705 
     81 H81        32.8795   25.0914    3.7618 H         1 UNK         0.1334 
     82 H82        33.3595   27.7992    0.4687 H         1 UNK         0.1417 
     83 H83        32.0096   23.7887   -0.2241 H         1 UNK         0.1562 
     84 H84        33.3201   25.5502   -2.0614 H         1 UNK         0.0748 
     85 H85        32.7388   27.1671   -1.7440 H         1 UNK         0.0748 
     86 H86        30.3290   27.7224   -1.1526 H         1 UNK         0.0940 
     87 H87        29.7232   26.3497   -0.2566 H         1 UNK         0.0940 
     88 H88        28.6144   27.1905   -2.9844 H         1 UNK         0.0703 
     89 H89        27.3935   25.4130   -0.8945 H         1 UNK         0.3081 
     90 H90        25.5165   23.7270   -3.4395 H         1 UNK         0.0719 
     91 H91        27.5642   22.4430   -2.7598 H         1 UNK         0.0809 
     92 H92        27.3068   22.9141   -1.0861 H         1 UNK         0.0809 
     93 H93        26.1296   21.8928   -1.9115 H         1 UNK         0.0809 
     94 H94        24.9673   23.7731   -0.7119 H         1 UNK         0.2990 
     95 H95        23.1366   26.5274   -0.1474 H         1 UNK         0.0690 
     96 H96        20.8929   25.4942   -0.3919 H         1 UNK         0.0788 
     97 H97        21.5268   24.3704   -1.5947 H         1 UNK         0.0788 
     98 H98        21.4884   26.0959   -1.9278 H         1 UNK         0.0788 
     99 H99        22.6946   23.6808    0.4145 H         1 UNK         0.2993 
    100 H100       25.0366   26.4078    1.0114 H         1 UNK         0.0949 
    101 H101       23.0233   27.1937    2.2782 H         1 UNK         0.0767 
    102 H102       23.6379   26.4506    3.7472 H         1 UNK         0.0767 
    103 H103       24.4936   27.8066    3.0154 H         1 UNK         0.0767 
    104 H104       25.9681   25.6131    3.6606 H         1 UNK         0.3013 
    105 H105       27.5158   27.1133    0.4259 H         1 UNK         0.3121 
    106 H106       26.5334   28.5510    1.7875 H         1 UNK         0.0774 
    107 H107       24.6197   28.5510    0.1228 H         1 UNK         0.0815 
    108 H108       24.7593   30.0627    1.0032 H         1 UNK         0.0815 
    109 H109       25.3250   29.9614   -0.6555 H         1 UNK         0.0815 
    110 H110       29.1358   28.9269    1.3646 H         1 UNK         0.2987 
    111 H111       29.8331   31.6489    0.5708 H         1 UNK         0.0949 
    112 H112       31.3698   29.8087    0.0444 H         1 UNK         0.0806 
    113 H113       32.1561   30.8281    1.2405 H         1 UNK         0.0806 
    114 H114       31.4239   29.3026    1.7284 H         1 UNK         0.0806 
    115 H115       30.6867   33.2645    1.8974 H         1 UNK         0.3010 
    116 H116       29.8637   33.2506    4.7438 H         1 UNK         0.0829 
    117 H117       30.3203   35.6835    4.5840 H         1 UNK         0.0813 
    118 H118       30.9034   35.4979    2.9354 H         1 UNK         0.0813 
    119 H119       29.2112   35.1832    3.3192 H         1 UNK         0.0813 
    120 H120       31.6856   31.3992    4.7325 H         1 UNK         0.3038 
    121 H121       34.0166   32.5520    6.0420 H         1 UNK         0.0769 
    122 H122       35.6302   31.2475    4.5968 H         1 UNK         0.0811 
    123 H123       34.8221   32.5065    3.6768 H         1 UNK         0.0811 
    124 H124       34.3154   30.8273    3.5086 H         1 UNK         0.0811 
    125 H125       34.9426   31.0944    7.4611 H         1 UNK         0.3204 
    126 H126       33.4651   28.5669    8.0134 H         1 UNK         0.0748 
    127 H127       34.6166   28.7243   10.2178 H         1 UNK         0.0771 
    128 H128       35.4203   30.2071    9.7192 H         1 UNK         0.0771 
    129 H129       33.6674   30.1665    9.8979 H         1 UNK         0.0771 
    130 H130       34.4671   27.7545    5.9828 H         1 UNK         0.2980 
    131 H131       37.2412   27.3887    5.6458 H         1 UNK         0.0545 
    132 H132       38.6703   25.5860    5.9877 H         1 UNK         0.3459 
    133 H133       38.2586   24.3031    7.0951 H         1 UNK         0.3459 
    134 H134       36.6230   25.7402    3.8870 H         1 UNK         0.0616 
    135 H135       34.9853   25.6867    4.4747 H         1 UNK         0.0616 
    136 H136       33.2375   27.4867    4.1674 H         1 UNK         0.0634 
    137 H137       33.2859   28.6162    2.8436 H         1 UNK         0.0634 
@<TRIPOS>BOND
     1    1    2 1    
     2    1   72 1    
     3    1   73 1    
     4    1   74 1    
     5    2    3 2    
     6    2    4 am   BACKBONE|DICT|INTERRES
     7    4    5 1    
     8    4   75 1    
     9    5    6 1    
    10    5   35 1    
    11    5   76 1    
    12    6    7 1    
    13    6   77 1    
    14    6   78 1    
    15    7    8 1    
    16    8    9 1    
    17    8   79 1    
    18    8   80 1    
    19    9   10 ar   
    20    9   14 ar   
    21   10   11 ar   
    22   10   81 1    
    23   11   12 ar   
    24   11   71 1    
    25   12   13 ar   
    26   12   82 1    
    27   13   14 ar   
    28   13   15 1    
    29   14   83 1    
    30   15   16 1    
    31   15   84 1    
    32   15   85 1    
    33   16   17 1    
    34   17   18 1    
    35   17   86 1    
    36   17   87 1    
    37   18   19 1    
    38   18   37 1    
    39   18   88 1    
    40   19   20 am   BACKBONE|DICT|INTERRES
    41   19   89 1    
    42   20   21 2    
    43   20   22 1    
    44   22   23 1    
    45   22   24 1    
    46   22   90 1    
    47   23   91 1    
    48   23   92 1    
    49   23   93 1    
    50   24   25 am   BACKBONE|DICT|INTERRES
    51   24   94 1    
    52   25   26 2    
    53   25   27 1    
    54   27   28 1    
    55   27   29 1    
    56   27   95 1    
    57   28   96 1    
    58   28   97 1    
    59   28   98 1    
    60   29   30 am   BACKBONE|DICT|INTERRES
    61   29   99 1    
    62   30   31 2    
    63   30   32 1    
    64   32   33 1    
    65   32   34 1    
    66   32  100 1    
    67   33  101 1    
    68   33  102 1    
    69   33  103 1    
    70   34   35 am   BACKBONE|DICT|INTERRES
    71   34  104 1    
    72   35   36 2    
    73   37   38 2    
    74   37   39 am   BACKBONE|DICT|INTERRES
    75   39   40 1    
    76   39  105 1    
    77   40   41 1    
    78   40   42 1    
    79   40  106 1    
    80   41  107 1    
    81   41  108 1    
    82   41  109 1    
    83   42   43 2    
    84   42   44 am   BACKBONE|DICT|INTERRES
    85   44   45 1    
    86   44  110 1    
    87   45   46 1    
    88   45   47 1    
    89   45  111 1    
    90   46  112 1    
    91   46  113 1    
    92   46  114 1    
    93   47   48 2    
    94   47   49 am   BACKBONE|DICT|INTERRES
    95   49   50 1    
    96   49  115 1    
    97   50   51 1    
    98   50   52 1    
    99   50  116 1    
   100   51  117 1    
   101   51  118 1    
   102   51  119 1    
   103   52   53 2    
   104   52   54 am   BACKBONE|DICT|INTERRES
   105   54   55 1    
   106   54  120 1    
   107   55   56 1    
   108   55   57 1    
   109   55  121 1    
   110   56  122 1    
   111   56  123 1    
   112   56  124 1    
   113   57   58 2    
   114   57   59 am   BACKBONE|DICT|INTERRES
   115   59   60 1    
   116   59  125 1    
   117   60   61 1    
   118   60   62 1    
   119   60  126 1    
   120   61  127 1    
   121   61  128 1    
   122   61  129 1    
   123   62   63 2    
   124   62   64 am   BACKBONE|DICT|INTERRES
   125   64   65 1    
   126   64  130 1    
   127   65   66 1    
   128   65   69 1    
   129   65  131 1    
   130   66   67 am   BACKBONE|DICT|INTERRES
   131   66   68 2    
   132   67  132 1    
   133   67  133 1    
   134   69   70 1    
   135   69  134 1    
   136   69  135 1    
   137   70   71 1    
   138   71  136 1    
   139   71  137 1    
@<TRIPOS>SUBSTRUCTURE
     1 UNK         1 GROUP             0       ****    0 ROOT    
