@<TRIPOS>MOLECULE
3R136
137   139    1
SMALL
USER_CHARGES


@<TRIPOS>ATOM
      1 CA         29.4239   26.1864   -5.1994 C.3       0 UNK        -0.1979 
      2 C          29.0108   26.0846   -3.7392 C.2       0 UNK         0.4864 
      3 O          27.8523   26.3452   -3.4147 O.2       0 UNK        -0.5359 
      4 N          29.9432   25.6858   -2.8599 N.am      1 UNK        -0.4318 
      5 CA         29.7695   25.5741   -1.4027 C.3       1 UNK         0.0824 
      6 C6         31.0959   25.1595   -0.7173 C.3       12 UNK        -0.0944 
      7 S7         31.1444   25.5901    1.0533 S.3       12 UNK        -0.2672 
      8 C8         31.2945   23.9474    1.8144 C.3       12 UNK         0.0333 
      9 C9         31.1630   24.0405    3.3260 C.ar      12 UNK        -0.0807 
     10 C10        32.2738   24.3469    4.1181 C.ar      12 UNK        -0.0894 
     11 C11        32.1522   24.4251    5.5090 C.ar      12 UNK        -0.0804 
     12 C12        30.9000   24.2190    6.0987 C.ar      12 UNK        -0.0824 
     13 C13        29.7747   23.9310    5.3195 C.ar      12 UNK        -0.0762 
     14 C14        29.9247   23.8152    3.9325 C.ar      12 UNK        -0.0782 
     15 C15        28.4285   23.7275    6.0184 C.3       12 UNK         0.0230 
     16 S16        26.9452   24.0501    4.9973 S.3       12 UNK        -0.2608 
     17 C17        27.1494   25.8075    4.5373 C.3       12 UNK        -0.0989 
     18 CA         27.1548   26.0017    2.9942 C.3       5 UNK         0.0716 
     19 N          25.9336   25.5246    2.3301 N.am      5 UNK        -0.4135 
     20 C          24.6915   25.9981    2.5076 C.2       4 UNK         0.5031 
     21 O          24.4116   26.9379    3.2549 O.2       4 UNK        -0.5229 
     22 CA         23.5727   25.2777    1.7275 C.3       4 UNK         0.0329 
     23 CB         22.1966   25.9639    1.8711 C.3       4 UNK        -0.2001 
     24 N          23.8960   25.0589    0.3124 N.am      4 UNK        -0.4303 
     25 C          24.1527   25.9827   -0.6246 C.2       3 UNK         0.5044 
     26 O          24.1797   27.1939   -0.4050 O.2       3 UNK        -0.5152 
     27 CA         24.4253   25.4476   -2.0475 C.3       3 UNK         0.0319 
     28 CB         24.5281   26.5756   -3.0908 C.3       3 UNK        -0.2001 
     29 N          25.6428   24.6333   -2.1064 N.am      3 UNK        -0.4354 
     30 C          25.7676   23.3890   -1.6172 C.2       2 UNK         0.4964 
     31 O          24.8270   22.7623   -1.1262 O.2       2 UNK        -0.5047 
     32 CA         27.1599   22.7256   -1.6418 C.3       2 UNK         0.0288 
     33 CB         27.2268   21.6639   -2.7518 C.3       2 UNK        -0.2113 
     34 N          28.2857   23.6498   -1.8016 N.am      2 UNK        -0.4145 
     35 C          28.5935   24.6641   -0.9793 C.2       1 UNK         0.5006 
     36 O          27.9568   24.9290    0.0418 O.2       1 UNK        -0.5103 
     37 C          27.5051   27.4366    2.5542 C.2       5 UNK         0.5055 
     38 O          27.7546   28.3086    3.3903 O.2       5 UNK        -0.5220 
     39 N          27.5362   27.6526    1.2321 N.am      6 UNK        -0.4450 
     40 CA         27.8996   28.9151    0.5818 C.3       6 UNK         0.0367 
     41 CB         27.2762   28.9548   -0.8250 C.3       6 UNK        -0.1929 
     42 C          29.4279   29.1147    0.5611 C.2       6 UNK         0.5070 
     43 O          30.0285   29.2271   -0.5080 O.2       6 UNK        -0.5237 
     44 N          30.0338   29.1232    1.7535 N.am      7 UNK        -0.4739 
     45 CA         31.4826   29.1491    1.9629 C.3       7 UNK         0.0276 
     46 CB         31.7924   28.5354    3.3381 C.3       7 UNK        -0.1927 
     47 C          32.1139   30.5455    1.8459 C.2       7 UNK         0.5013 
     48 O          33.3376   30.6442    1.9268 O.2       7 UNK        -0.5193 
     49 N          31.2937   31.6010    1.7174 N.am      8 UNK        -0.4253 
     50 CA         31.6892   33.0148    1.5959 C.3       8 UNK         0.0242 
     51 CB         32.3115   33.2751    0.2075 C.3       8 UNK        -0.2000 
     52 C          32.5929   33.5015    2.7507 C.2       8 UNK         0.4948 
     53 O          33.5136   34.2890    2.5270 O.2       8 UNK        -0.5275 
     54 N          32.3215   32.9864    3.9596 N.am      9 UNK        -0.4246 
     55 CA         33.0592   33.1867    5.2127 C.3       9 UNK         0.0261 
     56 CB         33.0443   34.6708    5.6403 C.3       9 UNK        -0.1959 
     57 C          34.4802   32.5807    5.2373 C.2       9 UNK         0.5033 
     58 O          35.2383   32.8966    6.1563 O.2       9 UNK        -0.5390 
     59 N          34.8256   31.7017    4.2804 N.am      10 UNK        -0.4215 
     60 CA         36.0897   30.9528    4.2891 C.3       10 UNK         0.0240 
     61 CB         36.3841   30.3954    2.8873 C.3       10 UNK        -0.1982 
     62 C          36.0936   29.8188    5.3303 C.2       10 UNK         0.4970 
     63 O          37.1554   29.4957    5.8640 O.2       10 UNK        -0.4916 
     64 N          34.9139   29.2448    5.6033 N.am      11 UNK        -0.4279 
     65 CA         34.6806   28.2800    6.6834 C.3       11 UNK         0.1003 
     66 C          34.7164   28.9913    8.0649 C.2       11 UNK         0.5709 
     67 N          35.4923   28.4848    9.0136 N.am      11 UNK        -0.7358 
     68 O          34.0232   29.9830    8.2851 O.2       11 UNK        -0.4999 
     69 C69        33.3518   27.5132    6.4490 C.3       12 UNK        -0.0954 
     70 S70        33.1659   26.0640    7.5401 S.3       12 UNK        -0.2268 
     71 C71        33.3818   24.6787    6.3758 C.3       12 UNK         0.0203 
     72 H72        29.2820   27.2059   -5.5569 H         1 UNK         0.0888 
     73 H73        30.4692   25.9167   -5.3487 H         1 UNK         0.0888 
     74 H74        28.8109   25.5232   -5.8091 H         1 UNK         0.0888 
     75 H75        30.8714   25.4796   -3.2015 H         1 UNK         0.3017 
     76 H76        29.5167   26.5791   -1.0629 H         1 UNK         0.0873 
     77 H77        31.3010   24.0970   -0.8625 H         1 UNK         0.0745 
     78 H78        31.9319   25.6875   -1.1790 H         1 UNK         0.0745 
     79 H79        30.5260   23.2874    1.4083 H         1 UNK         0.0705 
     80 H80        32.2569   23.5084    1.5466 H         1 UNK         0.0705 
     81 H81        33.2347   24.5099    3.6490 H         1 UNK         0.1334 
     82 H82        30.8043   24.2796    7.1745 H         1 UNK         0.1417 
     83 H83        29.0773   23.5543    3.3152 H         1 UNK         0.1562 
     84 H84        28.3721   24.3648    6.9025 H         1 UNK         0.0748 
     85 H85        28.3807   22.6988    6.3777 H         1 UNK         0.0748 
     86 H86        28.0790   26.1832    4.9692 H         1 UNK         0.0940 
     87 H87        26.3505   26.3877    5.0017 H         1 UNK         0.0940 
     88 H88        27.9651   25.3911    2.5991 H         1 UNK         0.0703 
     89 H89        26.0742   24.7812    1.6602 H         1 UNK         0.3081 
     90 H90        23.4882   24.2863    2.1750 H         1 UNK         0.0719 
     91 H91        22.2088   26.9822    1.4811 H         1 UNK         0.0809 
     92 H92        21.4201   25.4112    1.3423 H         1 UNK         0.0809 
     93 H93        21.8958   26.0211    2.9179 H         1 UNK         0.0809 
     94 H94        23.9568   24.0887    0.0141 H         1 UNK         0.2990 
     95 H95        23.5757   24.8202   -2.3257 H         1 UNK         0.0690 
     96 H96        24.6847   26.1772   -4.0933 H         1 UNK         0.0788 
     97 H97        25.3518   27.2556   -2.8696 H         1 UNK         0.0788 
     98 H98        23.6134   27.1692   -3.1160 H         1 UNK         0.0788 
     99 H99        26.4651   25.0952   -2.4827 H         1 UNK         0.2993 
    100 H100       27.2866   22.2254   -0.6793 H         1 UNK         0.0949 
    101 H101       26.4213   20.9354   -2.6463 H         1 UNK         0.0767 
    102 H102       27.1343   22.1108   -3.7426 H         1 UNK         0.0767 
    103 H103       28.1657   21.1108   -2.7174 H         1 UNK         0.0767 
    104 H104       28.8519   23.5285   -2.6285 H         1 UNK         0.3013 
    105 H105       27.3914   26.8513    0.6278 H         1 UNK         0.3121 
    106 H106       27.4735   29.7415    1.1547 H         1 UNK         0.0774 
    107 H107       27.6217   28.1284   -1.4454 H         1 UNK         0.0815 
    108 H108       27.5311   29.8806   -1.3422 H         1 UNK         0.0815 
    109 H109       26.1889   28.9046   -0.7769 H         1 UNK         0.0815 
    110 H110       29.4484   28.9977    2.5744 H         1 UNK         0.2987 
    111 H111       31.9539   28.5261    1.1994 H         1 UNK         0.0949 
    112 H112       31.3870   29.1358    4.1533 H         1 UNK         0.0806 
    113 H113       31.3829   27.5287    3.4283 H         1 UNK         0.0806 
    114 H114       32.8694   28.4554    3.4862 H         1 UNK         0.0806 
    115 H115       30.3018   31.4115    1.6878 H         1 UNK         0.3010 
    116 H116       30.7716   33.6013    1.6628 H         1 UNK         0.0829 
    117 H117       33.2644   32.7576    0.0898 H         1 UNK         0.0813 
    118 H118       31.6495   32.9435   -0.5924 H         1 UNK         0.0813 
    119 H119       32.4971   34.3387    0.0528 H         1 UNK         0.0813 
    120 H120       31.5399   32.3483    4.0189 H         1 UNK         0.3038 
    121 H121       32.5008   32.6319    5.9684 H         1 UNK         0.0769 
    122 H122       33.6577   35.2889    4.9844 H         1 UNK         0.0811 
    123 H123       33.4334   34.7912    6.6521 H         1 UNK         0.0811 
    124 H124       32.0326   35.0761    5.6355 H         1 UNK         0.0811 
    125 H125       34.1851   31.5040    3.5160 H         1 UNK         0.3204 
    126 H126       36.8947   31.6441    4.5480 H         1 UNK         0.0748 
    127 H127       37.3757   29.9423    2.8510 H         1 UNK         0.0771 
    128 H128       35.6675   29.6263    2.5972 H         1 UNK         0.0771 
    129 H129       36.3578   31.1812    2.1320 H         1 UNK         0.0771 
    130 H130       34.0929   29.6033    5.1427 H         1 UNK         0.2980 
    131 H131       35.4935   27.5516    6.6450 H         1 UNK         0.0545 
    132 H132       35.5159   28.9300    9.9175 H         1 UNK         0.3459 
    133 H133       36.0526   27.6641    8.8437 H         1 UNK         0.3459 
    134 H134       32.4903   28.1690    6.5874 H         1 UNK         0.0616 
    135 H135       33.3026   27.1652    5.4171 H         1 UNK         0.0616 
    136 H136       34.2663   24.8620    5.7635 H         1 UNK         0.0634 
    137 H137       33.5893   23.7750    6.9502 H         1 UNK         0.0634 
@<TRIPOS>BOND
     1    1    2 1    
     2    1   72 1    
     3    1   73 1    
     4    1   74 1    
     5    2    3 2    
     6    2    4 am   BACKBONE|DICT|INTERRES
     7    4    5 1    
     8    4   75 1    
     9    5    6 1    
    10    5   35 1    
    11    5   76 1    
    12    6    7 1    
    13    6   77 1    
    14    6   78 1    
    15    7    8 1    
    16    8    9 1    
    17    8   79 1    
    18    8   80 1    
    19    9   10 ar   
    20    9   14 ar   
    21   10   11 ar   
    22   10   81 1    
    23   11   12 ar   
    24   11   71 1    
    25   12   13 ar   
    26   12   82 1    
    27   13   14 ar   
    28   13   15 1    
    29   14   83 1    
    30   15   16 1    
    31   15   84 1    
    32   15   85 1    
    33   16   17 1    
    34   17   18 1    
    35   17   86 1    
    36   17   87 1    
    37   18   19 1    
    38   18   37 1    
    39   18   88 1    
    40   19   20 am   BACKBONE|DICT|INTERRES
    41   19   89 1    
    42   20   21 2    
    43   20   22 1    
    44   22   23 1    
    45   22   24 1    
    46   22   90 1    
    47   23   91 1    
    48   23   92 1    
    49   23   93 1    
    50   24   25 am   BACKBONE|DICT|INTERRES
    51   24   94 1    
    52   25   26 2    
    53   25   27 1    
    54   27   28 1    
    55   27   29 1    
    56   27   95 1    
    57   28   96 1    
    58   28   97 1    
    59   28   98 1    
    60   29   30 am   BACKBONE|DICT|INTERRES
    61   29   99 1    
    62   30   31 2    
    63   30   32 1    
    64   32   33 1    
    65   32   34 1    
    66   32  100 1    
    67   33  101 1    
    68   33  102 1    
    69   33  103 1    
    70   34   35 am   BACKBONE|DICT|INTERRES
    71   34  104 1    
    72   35   36 2    
    73   37   38 2    
    74   37   39 am   BACKBONE|DICT|INTERRES
    75   39   40 1    
    76   39  105 1    
    77   40   41 1    
    78   40   42 1    
    79   40  106 1    
    80   41  107 1    
    81   41  108 1    
    82   41  109 1    
    83   42   43 2    
    84   42   44 am   BACKBONE|DICT|INTERRES
    85   44   45 1    
    86   44  110 1    
    87   45   46 1    
    88   45   47 1    
    89   45  111 1    
    90   46  112 1    
    91   46  113 1    
    92   46  114 1    
    93   47   48 2    
    94   47   49 am   BACKBONE|DICT|INTERRES
    95   49   50 1    
    96   49  115 1    
    97   50   51 1    
    98   50   52 1    
    99   50  116 1    
   100   51  117 1    
   101   51  118 1    
   102   51  119 1    
   103   52   53 2    
   104   52   54 am   BACKBONE|DICT|INTERRES
   105   54   55 1    
   106   54  120 1    
   107   55   56 1    
   108   55   57 1    
   109   55  121 1    
   110   56  122 1    
   111   56  123 1    
   112   56  124 1    
   113   57   58 2    
   114   57   59 am   BACKBONE|DICT|INTERRES
   115   59   60 1    
   116   59  125 1    
   117   60   61 1    
   118   60   62 1    
   119   60  126 1    
   120   61  127 1    
   121   61  128 1    
   122   61  129 1    
   123   62   63 2    
   124   62   64 am   BACKBONE|DICT|INTERRES
   125   64   65 1    
   126   64  130 1    
   127   65   66 1    
   128   65   69 1    
   129   65  131 1    
   130   66   67 am   BACKBONE|DICT|INTERRES
   131   66   68 2    
   132   67  132 1    
   133   67  133 1    
   134   69   70 1    
   135   69  134 1    
   136   69  135 1    
   137   70   71 1    
   138   71  136 1    
   139   71  137 1    
@<TRIPOS>SUBSTRUCTURE
     1 UNK         1 GROUP             0       ****    0 ROOT    
