@<TRIPOS>MOLECULE
3R136
137   139    1
SMALL
USER_CHARGES


@<TRIPOS>ATOM
      1 CA         27.1046   16.5471    3.2896 C.3       0 UNK        -0.1979 
      2 C          27.1873   17.3812    2.0196 C.2       0 UNK         0.4864 
      3 O          26.9080   16.8713    0.9331 O.2       0 UNK        -0.5359 
      4 N          27.5773   18.6556    2.1468 N.am      1 UNK        -0.4318 
      5 CA         27.6446   19.6319    1.0559 C.3       1 UNK         0.0824 
      6 C6         28.5178   20.8587    1.4305 C.3       12 UNK        -0.0944 
      7 S7         28.1218   21.6133    3.0514 S.3       12 UNK        -0.2672 
      8 C8         27.9036   23.3641    2.6132 C.3       12 UNK         0.0333 
      9 C9         29.2370   24.0934    2.5021 C.ar      12 UNK        -0.0807 
     10 C10        29.7419   24.7917    3.6036 C.ar      12 UNK        -0.0894 
     11 C11        30.9659   25.4630    3.5226 C.ar      12 UNK        -0.0804 
     12 C12        31.6921   25.4183    2.3294 C.ar      12 UNK        -0.0824 
     13 C13        31.1892   24.7464    1.2127 C.ar      12 UNK        -0.0762 
     14 C14        29.9582   24.0900    1.3028 C.ar      12 UNK        -0.0782 
     15 C15        31.9925   24.7100   -0.0803 C.3       12 UNK         0.0230 
     16 S16        31.3303   25.8323   -1.3537 S.3       12 UNK        -0.2608 
     17 C17        31.5576   27.4833   -0.6025 C.3       12 UNK        -0.0989 
     18 CA         30.2183   28.2670   -0.5203 C.3       5 UNK         0.0716 
     19 N          29.1995   27.5466    0.2461 N.am      5 UNK        -0.4135 
     20 C          27.9080   27.4547   -0.0899 C.2       4 UNK         0.5031 
     21 O          27.4128   27.9365   -1.1129 O.2       4 UNK        -0.5229 
     22 CA         27.0058   26.7273    0.9194 C.3       4 UNK         0.0329 
     23 CB         26.3774   27.7302    1.9004 C.3       4 UNK        -0.2001 
     24 N          25.9443   25.9573    0.2678 N.am      4 UNK        -0.4303 
     25 C          26.1454   24.8728   -0.4909 C.2       3 UNK         0.5044 
     26 O          27.2529   24.3822   -0.7278 O.2       3 UNK        -0.5152 
     27 CA         24.8949   24.2089   -1.0721 C.3       3 UNK         0.0319 
     28 CB         24.5172   24.8299   -2.4293 C.3       3 UNK        -0.2001 
     29 N          25.1704   22.7841   -1.2276 N.am      3 UNK        -0.4354 
     30 C          24.2538   21.8116   -1.2627 C.2       2 UNK         0.4964 
     31 O          23.0402   22.0110   -1.1937 O.2       2 UNK        -0.5047 
     32 CA         24.7696   20.3700   -1.4083 C.3       2 UNK         0.0288 
     33 CB         24.8741   19.9872   -2.8941 C.3       2 UNK        -0.2113 
     34 N          26.0612   20.1291   -0.7551 N.am      2 UNK        -0.4145 
     35 C          26.2305   20.0251    0.5714 C.2       1 UNK         0.5006 
     36 O          25.3265   20.2050    1.3922 O.2       1 UNK        -0.5103 
     37 C          30.3434   29.7009    0.0434 C.2       5 UNK         0.5055 
     38 O          29.3207   30.3464    0.2889 O.2       5 UNK        -0.5220 
     39 N          31.5731   30.1982    0.2420 N.am      6 UNK        -0.4450 
     40 CA         31.8836   31.5506    0.7220 C.3       6 UNK         0.0367 
     41 CB         33.3382   31.8892    0.3436 C.3       6 UNK        -0.1929 
     42 C          31.6165   31.7402    2.2298 C.2       6 UNK         0.5070 
     43 O          32.5071   32.1694    2.9650 O.2       6 UNK        -0.5237 
     44 N          30.3947   31.4288    2.6789 N.am      7 UNK        -0.4739 
     45 CA         29.9525   31.4906    4.0782 C.3       7 UNK         0.0276 
     46 CB         28.5128   30.9657    4.1805 C.3       7 UNK        -0.1927 
     47 C          30.0747   32.8858    4.7173 C.2       7 UNK         0.5013 
     48 O          30.3378   32.9791    5.9163 O.2       7 UNK        -0.5193 
     49 N          29.9613   33.9413    3.8978 N.am      8 UNK        -0.4253 
     50 CA         30.2135   35.3367    4.2757 C.3       8 UNK         0.0242 
     51 CB         29.7993   36.2548    3.1143 C.3       8 UNK        -0.2000 
     52 C          31.6730   35.6188    4.6889 C.2       8 UNK         0.4948 
     53 O          31.9097   36.5709    5.4327 O.2       8 UNK        -0.5275 
     54 N          32.6130   34.7835    4.2255 N.am      9 UNK        -0.4246 
     55 CA         34.0286   34.7911    4.5964 C.3       9 UNK         0.0261 
     56 CB         34.8727   34.8378    3.3089 C.3       9 UNK        -0.1959 
     57 C          34.3761   33.5611    5.4587 C.2       9 UNK         0.5033 
     58 O          35.5354   33.1417    5.4740 O.2       9 UNK        -0.5390 
     59 N          33.3691   32.9758    6.1303 N.am      10 UNK        -0.4215 
     60 CA         33.4364   31.7733    6.9725 C.3       10 UNK         0.0240 
     61 CB         34.2264   32.0641    8.2666 C.3       10 UNK        -0.1982 
     62 C          33.9493   30.5215    6.2297 C.2       10 UNK         0.4970 
     63 O          34.5567   29.6503    6.8548 O.2       10 UNK        -0.4916 
     64 N          33.7055   30.4641    4.9129 N.am      11 UNK        -0.4279 
     65 CA         34.1805   29.4342    3.9766 C.3       11 UNK         0.1003 
     66 C          35.7216   29.4519    3.7388 C.2       11 UNK         0.5709 
     67 N          36.4411   30.5076    4.1062 N.am      11 UNK        -0.7358 
     68 O          36.2750   28.5091    3.1778 O.2       11 UNK        -0.4999 
     69 C69        33.6195   28.0153    4.2801 C.3       12 UNK        -0.0954 
     70 S70        31.7957   27.9775    4.3769 S.3       12 UNK        -0.2268 
     71 C71        31.5092   26.2134    4.7319 C.3       12 UNK         0.0203 
     72 H72        26.0872   16.1850    3.4347 H         1 UNK         0.0888 
     73 H73        27.7669   15.6848    3.2164 H         1 UNK         0.0888 
     74 H74        27.3897   17.1196    4.1721 H         1 UNK         0.0888 
     75 H75        27.7618   19.0354    3.0649 H         1 UNK         0.3017 
     76 H76        28.1425   19.1332    0.2210 H         1 UNK         0.0873 
     77 H77        29.5649   20.5544    1.4681 H         1 UNK         0.0745 
     78 H78        28.4639   21.6072    0.6394 H         1 UNK         0.0745 
     79 H79        27.2840   23.8387    3.3756 H         1 UNK         0.0705 
     80 H80        27.3400   23.4365    1.6857 H         1 UNK         0.0705 
     81 H81        29.1816   24.8056    4.5287 H         1 UNK         0.1334 
     82 H82        32.6486   25.9159    2.2663 H         1 UNK         0.1417 
     83 H83        29.5661   23.5784    0.4350 H         1 UNK         0.1562 
     84 H84        31.9895   23.6931   -0.4755 H         1 UNK         0.0748 
     85 H85        33.0388   24.9577    0.1056 H         1 UNK         0.0748 
     86 H86        32.2760   28.0151   -1.2291 H         1 UNK         0.0940 
     87 H87        32.0172   27.3886    0.3817 H         1 UNK         0.0940 
     88 H88        29.8673   28.3913   -1.5470 H         1 UNK         0.0703 
     89 H89        29.5118   27.1262    1.1092 H         1 UNK         0.3081 
     90 H90        27.6182   26.0318    1.4919 H         1 UNK         0.0719 
     91 H91        27.1473   28.3010    2.4210 H         1 UNK         0.0809 
     92 H92        25.7340   28.4465    1.3875 H         1 UNK         0.0809 
     93 H93        25.7818   27.2245    2.6606 H         1 UNK         0.0809 
     94 H94        25.0040   26.3092    0.3737 H         1 UNK         0.2990 
     95 H95        24.0714   24.3397   -0.3664 H         1 UNK         0.0690 
     96 H96        23.6128   24.3778   -2.8367 H         1 UNK         0.0788 
     97 H97        25.3145   24.7041   -3.1631 H         1 UNK         0.0788 
     98 H98        24.3286   25.8998   -2.3320 H         1 UNK         0.0788 
     99 H99        26.1556   22.5527   -1.2562 H         1 UNK         0.2993 
    100 H100       24.0296   19.7145   -0.9428 H         1 UNK         0.0949 
    101 H101       23.9191   20.1309   -3.4020 H         1 UNK         0.0767 
    102 H102       25.6153   20.5927   -3.4174 H         1 UNK         0.0767 
    103 H103       25.1482   18.9390   -3.0158 H         1 UNK         0.0767 
    104 H104       26.8500   19.9645   -1.3643 H         1 UNK         0.3013 
    105 H105       32.3678   29.6091    0.0434 H         1 UNK         0.3121 
    106 H106       31.2355   32.2564    0.1981 H         1 UNK         0.0774 
    107 H107       34.0512   31.2345    0.8463 H         1 UNK         0.0815 
    108 H108       33.5010   31.8035   -0.7308 H         1 UNK         0.0815 
    109 H109       33.5860   32.9142    0.6228 H         1 UNK         0.0815 
    110 H110       29.7306   31.0755    1.9939 H         1 UNK         0.2987 
    111 H111       30.5983   30.8224    4.6517 H         1 UNK         0.0949 
    112 H112       28.4471   29.9307    3.8449 H         1 UNK         0.0806 
    113 H113       28.1585   30.9925    5.2121 H         1 UNK         0.0806 
    114 H114       27.8219   31.5593    3.5807 H         1 UNK         0.0806 
    115 H115       29.7459   33.7621    2.9276 H         1 UNK         0.3010 
    116 H116       29.5829   35.5658    5.1375 H         1 UNK         0.0829 
    117 H117       30.3844   36.0581    2.2150 H         1 UNK         0.0813 
    118 H118       29.9460   37.3040    3.3750 H         1 UNK         0.0813 
    119 H119       28.7453   36.1303    2.8650 H         1 UNK         0.0813 
    120 H120       32.3314   33.9981    3.6453 H         1 UNK         0.3038 
    121 H121       34.2638   35.6748    5.1927 H         1 UNK         0.0769 
    122 H122       34.6069   35.6956    2.6911 H         1 UNK         0.0811 
    123 H123       34.7385   33.9368    2.7089 H         1 UNK         0.0811 
    124 H124       35.9357   34.9227    3.5378 H         1 UNK         0.0811 
    125 H125       32.4392   33.3675    6.0285 H         1 UNK         0.3204 
    126 H126       32.4081   31.5474    7.2583 H         1 UNK         0.0748 
    127 H127       35.2832   32.2405    8.0634 H         1 UNK         0.0771 
    128 H128       33.8332   32.9400    8.7827 H         1 UNK         0.0771 
    129 H129       34.1641   31.2264    8.9623 H         1 UNK         0.0771 
    130 H130       33.2297   31.2411    4.4646 H         1 UNK         0.2980 
    131 H131       33.7690   29.7252    3.0105 H         1 UNK         0.0545 
    132 H132       36.0109   31.3016    4.5664 H         1 UNK         0.3459 
    133 H133       37.4334   30.5077    3.9337 H         1 UNK         0.3459 
    134 H134       33.9312   27.3147    3.5054 H         1 UNK         0.0616 
    135 H135       34.0285   27.6332    5.2163 H         1 UNK         0.0616 
    136 H136       32.4307   25.7367    5.0685 H         1 UNK         0.0634 
    137 H137       30.8111   26.1480    5.5678 H         1 UNK         0.0634 
@<TRIPOS>BOND
     1    1    2 1    
     2    1   72 1    
     3    1   73 1    
     4    1   74 1    
     5    2    3 2    
     6    2    4 am   BACKBONE|DICT|INTERRES
     7    4    5 1    
     8    4   75 1    
     9    5    6 1    
    10    5   35 1    
    11    5   76 1    
    12    6    7 1    
    13    6   77 1    
    14    6   78 1    
    15    7    8 1    
    16    8    9 1    
    17    8   79 1    
    18    8   80 1    
    19    9   10 ar   
    20    9   14 ar   
    21   10   11 ar   
    22   10   81 1    
    23   11   12 ar   
    24   11   71 1    
    25   12   13 ar   
    26   12   82 1    
    27   13   14 ar   
    28   13   15 1    
    29   14   83 1    
    30   15   16 1    
    31   15   84 1    
    32   15   85 1    
    33   16   17 1    
    34   17   18 1    
    35   17   86 1    
    36   17   87 1    
    37   18   19 1    
    38   18   37 1    
    39   18   88 1    
    40   19   20 am   BACKBONE|DICT|INTERRES
    41   19   89 1    
    42   20   21 2    
    43   20   22 1    
    44   22   23 1    
    45   22   24 1    
    46   22   90 1    
    47   23   91 1    
    48   23   92 1    
    49   23   93 1    
    50   24   25 am   BACKBONE|DICT|INTERRES
    51   24   94 1    
    52   25   26 2    
    53   25   27 1    
    54   27   28 1    
    55   27   29 1    
    56   27   95 1    
    57   28   96 1    
    58   28   97 1    
    59   28   98 1    
    60   29   30 am   BACKBONE|DICT|INTERRES
    61   29   99 1    
    62   30   31 2    
    63   30   32 1    
    64   32   33 1    
    65   32   34 1    
    66   32  100 1    
    67   33  101 1    
    68   33  102 1    
    69   33  103 1    
    70   34   35 am   BACKBONE|DICT|INTERRES
    71   34  104 1    
    72   35   36 2    
    73   37   38 2    
    74   37   39 am   BACKBONE|DICT|INTERRES
    75   39   40 1    
    76   39  105 1    
    77   40   41 1    
    78   40   42 1    
    79   40  106 1    
    80   41  107 1    
    81   41  108 1    
    82   41  109 1    
    83   42   43 2    
    84   42   44 am   BACKBONE|DICT|INTERRES
    85   44   45 1    
    86   44  110 1    
    87   45   46 1    
    88   45   47 1    
    89   45  111 1    
    90   46  112 1    
    91   46  113 1    
    92   46  114 1    
    93   47   48 2    
    94   47   49 am   BACKBONE|DICT|INTERRES
    95   49   50 1    
    96   49  115 1    
    97   50   51 1    
    98   50   52 1    
    99   50  116 1    
   100   51  117 1    
   101   51  118 1    
   102   51  119 1    
   103   52   53 2    
   104   52   54 am   BACKBONE|DICT|INTERRES
   105   54   55 1    
   106   54  120 1    
   107   55   56 1    
   108   55   57 1    
   109   55  121 1    
   110   56  122 1    
   111   56  123 1    
   112   56  124 1    
   113   57   58 2    
   114   57   59 am   BACKBONE|DICT|INTERRES
   115   59   60 1    
   116   59  125 1    
   117   60   61 1    
   118   60   62 1    
   119   60  126 1    
   120   61  127 1    
   121   61  128 1    
   122   61  129 1    
   123   62   63 2    
   124   62   64 am   BACKBONE|DICT|INTERRES
   125   64   65 1    
   126   64  130 1    
   127   65   66 1    
   128   65   69 1    
   129   65  131 1    
   130   66   67 am   BACKBONE|DICT|INTERRES
   131   66   68 2    
   132   67  132 1    
   133   67  133 1    
   134   69   70 1    
   135   69  134 1    
   136   69  135 1    
   137   70   71 1    
   138   71  136 1    
   139   71  137 1    
@<TRIPOS>SUBSTRUCTURE
     1 UNK         1 GROUP             0       ****    0 ROOT    
