@<TRIPOS>MOLECULE
3R136
137   139    1
SMALL
USER_CHARGES


@<TRIPOS>ATOM
      1 CA         35.1641   24.0306    0.4548 C.3       0 UNK        -0.1979 
      2 C          33.8544   23.9596   -0.3169 C.2       0 UNK         0.4864 
      3 O          33.7380   23.1687   -1.2544 O.2       0 UNK        -0.5359 
      4 N          32.8744   24.7882    0.0633 N.am      1 UNK        -0.4318 
      5 CA         31.5242   24.8151   -0.5041 C.3       1 UNK         0.0824 
      6 C6         30.7798   26.1413   -0.1884 C.3       12 UNK        -0.0944 
      7 S7         30.9155   26.7570    1.5280 S.3       12 UNK        -0.2672 
      8 C8         29.6236   25.8029    2.3998 C.3       12 UNK         0.0333 
      9 C9         29.1270   26.4559    3.6884 C.ar      12 UNK        -0.0807 
     10 C10        29.9600   27.2401    4.4971 C.ar      12 UNK        -0.0894 
     11 C11        29.4637   27.8615    5.6459 C.ar      12 UNK        -0.0804 
     12 C12        28.1184   27.7042    5.9871 C.ar      12 UNK        -0.0824 
     13 C13        27.2754   26.9182    5.1956 C.ar      12 UNK        -0.0762 
     14 C14        27.7948   26.2689    4.0702 C.ar      12 UNK        -0.0782 
     15 C15        25.7927   26.8127    5.5280 C.3       12 UNK         0.0230 
     16 S16        24.7313   27.4113    4.1673 S.3       12 UNK        -0.2608 
     17 C17        25.3502   29.1115    3.8895 C.3       12 UNK        -0.0989 
     18 CA         26.3871   29.1873    2.7353 C.3       5 UNK         0.0716 
     19 N          25.9349   28.5918    1.4689 N.am      5 UNK        -0.4135 
     20 C          24.8849   28.9278    0.7122 C.2       4 UNK         0.5031 
     21 O          24.1674   29.9031    0.9370 O.2       4 UNK        -0.5229 
     22 CA         24.5879   28.0499   -0.5159 C.3       4 UNK         0.0329 
     23 CB         25.3522   28.5647   -1.7524 C.3       4 UNK        -0.2001 
     24 N          24.7891   26.6047   -0.3131 N.am      4 UNK        -0.4303 
     25 C          25.9319   25.9263   -0.1342 C.2       3 UNK         0.5044 
     26 O          27.0399   26.4632   -0.0665 O.2       3 UNK        -0.5152 
     27 CA         25.8213   24.3987    0.0093 C.3       3 UNK         0.0319 
     28 CB         24.6754   23.7960   -0.8380 C.3       3 UNK        -0.2001 
     29 N          27.1018   23.7979   -0.3629 N.am      3 UNK        -0.4354 
     30 C          27.4888   22.5419   -0.1024 C.2       2 UNK         0.4964 
     31 O          26.8206   21.7454    0.5577 O.2       2 UNK        -0.5047 
     32 CA         28.8299   22.0735   -0.6938 C.3       2 UNK         0.0288 
     33 CB         28.5889   21.3151   -2.0103 C.3       2 UNK        -0.2113 
     34 N          29.7567   23.1804   -0.9462 N.am      2 UNK        -0.4145 
     35 C          30.6999   23.5806   -0.0835 C.2       1 UNK         0.5006 
     36 O          30.9115   23.0342    1.0022 O.2       1 UNK        -0.5103 
     37 C          26.9932   30.5956    2.5863 C.2       5 UNK         0.5055 
     38 O          28.0014   30.8819    3.2323 O.2       5 UNK        -0.5220 
     39 N          26.4445   31.4187    1.6831 N.am      6 UNK        -0.4450 
     40 CA         27.0080   32.6994    1.2405 C.3       6 UNK         0.0367 
     41 CB         26.0017   33.3957    0.3107 C.3       6 UNK        -0.1929 
     42 C          28.3775   32.5579    0.5447 C.2       6 UNK         0.5070 
     43 O          29.1378   33.5249    0.5045 O.2       6 UNK        -0.5237 
     44 N          28.6741   31.3540    0.0315 N.am      7 UNK        -0.4739 
     45 CA         29.9732   30.9577   -0.5153 C.3       7 UNK         0.0276 
     46 CB         29.8254   29.5936   -1.2074 C.3       7 UNK        -0.1927 
     47 C          31.0932   30.9071    0.5420 C.2       7 UNK         0.5013 
     48 O          32.2527   31.1145    0.1863 O.2       7 UNK        -0.5193 
     49 N          30.7306   30.6353    1.8065 N.am      8 UNK        -0.4253 
     50 CA         31.5237   30.6725    3.0464 C.3       8 UNK         0.0242 
     51 CB         31.9306   32.1226    3.3675 C.3       8 UNK        -0.2000 
     52 C          32.7509   29.7415    3.1540 C.2       8 UNK         0.4948 
     53 O          33.1549   29.4373    4.2763 O.2       8 UNK        -0.5275 
     54 N          33.3257   29.3156    2.0228 N.am      9 UNK        -0.4246 
     55 CA         34.6083   28.6186    1.8683 C.3       9 UNK         0.0261 
     56 CB         34.7531   28.1639    0.4064 C.3       9 UNK        -0.1959 
     57 C          34.8796   27.4410    2.8206 C.2       9 UNK         0.5033 
     58 O          36.0182   27.2850    3.2639 O.2       9 UNK        -0.5390 
     59 N          33.8492   26.6420    3.1336 N.am      10 UNK        -0.4215 
     60 CA         33.9586   25.4949    4.0438 C.3       10 UNK         0.0240 
     61 CB         32.7173   24.5988    3.9196 C.3       10 UNK        -0.1982 
     62 C          34.1941   25.8826    5.5158 C.2       10 UNK         0.4970 
     63 O          34.6991   25.0491    6.2692 O.2       10 UNK        -0.4916 
     64 N          33.8427   27.1171    5.9002 N.am      11 UNK        -0.4279 
     65 CA         34.0862   27.6689    7.2420 C.3       11 UNK         0.1003 
     66 C          35.4700   28.3709    7.3747 C.2       11 UNK         0.5709 
     67 N          36.2962   28.4352    6.3353 N.am      11 UNK        -0.7358 
     68 O          35.8127   28.8529    8.4520 O.2       11 UNK        -0.4999 
     69 C69        32.9264   28.5866    7.7162 C.3       12 UNK        -0.0954 
     70 S70        31.3081   27.7358    7.7007 S.3       12 UNK        -0.2268 
     71 C71        30.3789   28.7299    6.4938 C.3       12 UNK         0.0203 
     72 H72        35.1838   24.8681    1.1506 H         1 UNK         0.0888 
     73 H73        35.3143   23.1128    1.0226 H         1 UNK         0.0888 
     74 H74        36.0005   24.1473   -0.2339 H         1 UNK         0.0888 
     75 H75        33.0063   25.3860    0.8638 H         1 UNK         0.3017 
     76 H76        31.6372   24.7608   -1.5895 H         1 UNK         0.0873 
     77 H77        31.2042   26.9217   -0.8210 H         1 UNK         0.0745 
     78 H78        29.7278   26.0920   -0.4749 H         1 UNK         0.0745 
     79 H79        28.7855   25.6502    1.7199 H         1 UNK         0.0705 
     80 H80        30.0066   24.8135    2.6448 H         1 UNK         0.0705 
     81 H81        30.9980   27.3825    4.2354 H         1 UNK         0.1334 
     82 H82        27.7267   28.2064    6.8611 H         1 UNK         0.1417 
     83 H83        27.1386   25.6661    3.4569 H         1 UNK         0.1562 
     84 H84        25.5539   27.3738    6.4329 H         1 UNK         0.0748 
     85 H85        25.5472   25.7708    5.7377 H         1 UNK         0.0748 
     86 H86        25.7822   29.4879    4.8189 H         1 UNK         0.0940 
     87 H87        24.4939   29.7532    3.6749 H         1 UNK         0.0940 
     88 H88        27.2390   28.5760    3.0189 H         1 UNK         0.0703 
     89 H89        26.4882   27.8075    1.1330 H         1 UNK         0.3081 
     90 H90        23.5228   28.1666   -0.7226 H         1 UNK         0.0719 
     91 H91        25.0946   27.9923   -2.6434 H         1 UNK         0.0809 
     92 H92        26.4334   28.5109   -1.6212 H         1 UNK         0.0809 
     93 H93        25.1046   29.6075   -1.9557 H         1 UNK         0.0809 
     94 H94        23.9368   26.0617   -0.3160 H         1 UNK         0.2990 
     95 H95        25.6353   24.1887    1.0644 H         1 UNK         0.0690 
     96 H96        24.6482   22.7089   -0.7646 H         1 UNK         0.0788 
     97 H97        24.7801   24.0510   -1.8935 H         1 UNK         0.0788 
     98 H98        23.6988   24.1481   -0.5051 H         1 UNK         0.0788 
     99 H99        27.7298   24.4282   -0.8424 H         1 UNK         0.2993 
    100 H100       29.2732   21.3738    0.0187 H         1 UNK         0.0949 
    101 H101       27.9212   20.4663   -1.8552 H         1 UNK         0.0767 
    102 H102       28.1339   21.9529   -2.7693 H         1 UNK         0.0767 
    103 H103       29.5210   20.9214   -2.4165 H         1 UNK         0.0767 
    104 H104       29.6600   23.6609   -1.8295 H         1 UNK         0.3013 
    105 H105       25.5881   31.1030    1.2333 H         1 UNK         0.3121 
    106 H106       27.1542   33.3234    2.1246 H         1 UNK         0.0774 
    107 H107       26.3790   34.3654   -0.0171 H         1 UNK         0.0815 
    108 H108       25.8021   32.8038   -0.5835 H         1 UNK         0.0815 
    109 H109       25.0517   33.5731    0.8152 H         1 UNK         0.0815 
    110 H110       27.9693   30.6344    0.0882 H         1 UNK         0.2987 
    111 H111       30.2648   31.6976   -1.2640 H         1 UNK         0.0949 
    112 H112       29.4901   28.8225   -0.5123 H         1 UNK         0.0806 
    113 H113       29.1085   29.6393   -2.0273 H         1 UNK         0.0806 
    114 H114       30.7763   29.2651   -1.6292 H         1 UNK         0.0806 
    115 H115       29.7420   30.4857    1.9692 H         1 UNK         0.3010 
    116 H116       30.8319   30.3488    3.8241 H         1 UNK         0.0829 
    117 H117       31.0589   32.7757    3.4147 H         1 UNK         0.0813 
    118 H118       32.4341   32.1843    4.3334 H         1 UNK         0.0813 
    119 H119       32.6123   32.5263    2.6181 H         1 UNK         0.0813 
    120 H120       32.9349   29.7080    1.1703 H         1 UNK         0.3038 
    121 H121       35.3832   29.3615    2.0661 H         1 UNK         0.0769 
    122 H122       35.6896   27.6264    0.2495 H         1 UNK         0.0811 
    123 H123       34.7546   29.0165   -0.2731 H         1 UNK         0.0811 
    124 H124       33.9397   27.5031    0.1064 H         1 UNK         0.0811 
    125 H125       32.9327   26.8693    2.7693 H         1 UNK         0.3204 
    126 H126       34.8231   24.9064    3.7289 H         1 UNK         0.0748 
    127 H127       32.8357   23.6903    4.5115 H         1 UNK         0.0771 
    128 H128       31.8206   25.0991    4.2819 H         1 UNK         0.0771 
    129 H129       32.5437   24.2869    2.8906 H         1 UNK         0.0771 
    130 H130       33.4905   27.7819    5.2175 H         1 UNK         0.2980 
    131 H131       34.1255   26.8390    7.9498 H         1 UNK         0.0545 
    132 H132       36.0417   28.0334    5.4436 H         1 UNK         0.3459 
    133 H133       37.1894   28.8878    6.4459 H         1 UNK         0.3459 
    134 H134       32.8883   29.4934    7.1109 H         1 UNK         0.0616 
    135 H135       33.1027   28.9196    8.7404 H         1 UNK         0.0616 
    136 H136       31.0641   29.2665    5.8414 H         1 UNK         0.0634 
    137 H137       29.8062   29.4922    7.0238 H         1 UNK         0.0634 
@<TRIPOS>BOND
     1    1    2 1    
     2    1   72 1    
     3    1   73 1    
     4    1   74 1    
     5    2    3 2    
     6    2    4 am   BACKBONE|DICT|INTERRES
     7    4    5 1    
     8    4   75 1    
     9    5    6 1    
    10    5   35 1    
    11    5   76 1    
    12    6    7 1    
    13    6   77 1    
    14    6   78 1    
    15    7    8 1    
    16    8    9 1    
    17    8   79 1    
    18    8   80 1    
    19    9   10 ar   
    20    9   14 ar   
    21   10   11 ar   
    22   10   81 1    
    23   11   12 ar   
    24   11   71 1    
    25   12   13 ar   
    26   12   82 1    
    27   13   14 ar   
    28   13   15 1    
    29   14   83 1    
    30   15   16 1    
    31   15   84 1    
    32   15   85 1    
    33   16   17 1    
    34   17   18 1    
    35   17   86 1    
    36   17   87 1    
    37   18   19 1    
    38   18   37 1    
    39   18   88 1    
    40   19   20 am   BACKBONE|DICT|INTERRES
    41   19   89 1    
    42   20   21 2    
    43   20   22 1    
    44   22   23 1    
    45   22   24 1    
    46   22   90 1    
    47   23   91 1    
    48   23   92 1    
    49   23   93 1    
    50   24   25 am   BACKBONE|DICT|INTERRES
    51   24   94 1    
    52   25   26 2    
    53   25   27 1    
    54   27   28 1    
    55   27   29 1    
    56   27   95 1    
    57   28   96 1    
    58   28   97 1    
    59   28   98 1    
    60   29   30 am   BACKBONE|DICT|INTERRES
    61   29   99 1    
    62   30   31 2    
    63   30   32 1    
    64   32   33 1    
    65   32   34 1    
    66   32  100 1    
    67   33  101 1    
    68   33  102 1    
    69   33  103 1    
    70   34   35 am   BACKBONE|DICT|INTERRES
    71   34  104 1    
    72   35   36 2    
    73   37   38 2    
    74   37   39 am   BACKBONE|DICT|INTERRES
    75   39   40 1    
    76   39  105 1    
    77   40   41 1    
    78   40   42 1    
    79   40  106 1    
    80   41  107 1    
    81   41  108 1    
    82   41  109 1    
    83   42   43 2    
    84   42   44 am   BACKBONE|DICT|INTERRES
    85   44   45 1    
    86   44  110 1    
    87   45   46 1    
    88   45   47 1    
    89   45  111 1    
    90   46  112 1    
    91   46  113 1    
    92   46  114 1    
    93   47   48 2    
    94   47   49 am   BACKBONE|DICT|INTERRES
    95   49   50 1    
    96   49  115 1    
    97   50   51 1    
    98   50   52 1    
    99   50  116 1    
   100   51  117 1    
   101   51  118 1    
   102   51  119 1    
   103   52   53 2    
   104   52   54 am   BACKBONE|DICT|INTERRES
   105   54   55 1    
   106   54  120 1    
   107   55   56 1    
   108   55   57 1    
   109   55  121 1    
   110   56  122 1    
   111   56  123 1    
   112   56  124 1    
   113   57   58 2    
   114   57   59 am   BACKBONE|DICT|INTERRES
   115   59   60 1    
   116   59  125 1    
   117   60   61 1    
   118   60   62 1    
   119   60  126 1    
   120   61  127 1    
   121   61  128 1    
   122   61  129 1    
   123   62   63 2    
   124   62   64 am   BACKBONE|DICT|INTERRES
   125   64   65 1    
   126   64  130 1    
   127   65   66 1    
   128   65   69 1    
   129   65  131 1    
   130   66   67 am   BACKBONE|DICT|INTERRES
   131   66   68 2    
   132   67  132 1    
   133   67  133 1    
   134   69   70 1    
   135   69  134 1    
   136   69  135 1    
   137   70   71 1    
   138   71  136 1    
   139   71  137 1    
@<TRIPOS>SUBSTRUCTURE
     1 UNK         1 GROUP             0       ****    0 ROOT    
