@<TRIPOS>MOLECULE
3R136
137   139    1
SMALL
USER_CHARGES


@<TRIPOS>ATOM
      1 CA         28.5250   25.0715    4.1777 C.3       0 UNK        -0.1979 
      2 C          28.4194   23.8187    3.3214 C.2       0 UNK         0.4864 
      3 O          27.6152   22.9359    3.6261 O.2       0 UNK        -0.5359 
      4 N          29.2177   23.7420    2.2490 N.am      1 UNK        -0.4318 
      5 CA         29.1444   22.6953    1.2227 C.3       1 UNK         0.0824 
      6 C6         30.4795   22.5670    0.4379 C.3       12 UNK        -0.0944 
      7 S7         31.7889   21.7969    1.4544 S.3       12 UNK        -0.2672 
      8 C8         33.0871   23.0742    1.5074 C.3       12 UNK         0.0333 
      9 C9         32.6479   24.2799    2.3204 C.ar      12 UNK        -0.0807 
     10 C10        32.6532   24.2310    3.7172 C.ar      12 UNK        -0.0894 
     11 C11        32.1950   25.3191    4.4665 C.ar      12 UNK        -0.0804 
     12 C12        31.7202   26.4562    3.8070 C.ar      12 UNK        -0.0824 
     13 C13        31.7193   26.5167    2.4100 C.ar      12 UNK        -0.0762 
     14 C14        32.2067   25.4349    1.6738 C.ar      12 UNK        -0.0782 
     15 C15        31.1687   27.7336    1.6879 C.3       12 UNK         0.0230 
     16 S16        29.7716   27.2848    0.6177 S.3       12 UNK        -0.2608 
     17 C17        29.1370   28.9366    0.1495 C.3       12 UNK        -0.0989 
     18 CA         27.6950   29.2067    0.6620 C.3       5 UNK         0.0716 
     19 N          26.8293   28.0669    0.3523 N.am      5 UNK        -0.4135 
     20 C          25.4980   28.0358    0.2446 C.2       4 UNK         0.5031 
     21 O          24.7726   29.0100    0.4552 O.2       4 UNK        -0.5229 
     22 CA         24.8982   26.6716   -0.1458 C.3       4 UNK         0.0329 
     23 CB         23.4414   26.7683   -0.6465 C.3       4 UNK        -0.2001 
     24 N          25.7492   25.9361   -1.0938 N.am      4 UNK        -0.4303 
     25 C          26.0518   26.2801   -2.3586 C.2       3 UNK         0.5044 
     26 O          25.6116   27.2838   -2.9202 O.2       3 UNK        -0.5152 
     27 CA         27.0277   25.3702   -3.1374 C.3       3 UNK         0.0319 
     28 CB         28.4018   26.0505   -3.2608 C.3       3 UNK        -0.2001 
     29 N          27.2142   24.0439   -2.5428 N.am      3 UNK        -0.4354 
     30 C          26.2693   23.0990   -2.4416 C.2       2 UNK         0.4964 
     31 O          25.1669   23.1831   -2.9841 O.2       2 UNK        -0.5047 
     32 CA         26.5767   21.8650   -1.5663 C.3       2 UNK         0.0288 
     33 CB         26.7790   20.6232   -2.4514 C.3       2 UNK        -0.2113 
     34 N          27.7151   21.9701   -0.6377 N.am      2 UNK        -0.4145 
     35 C          27.9300   22.9191    0.2882 C.2       1 UNK         0.5006 
     36 O          27.2235   23.9263    0.4030 O.2       1 UNK        -0.5103 
     37 C          27.6287   29.6301    2.1498 C.2       5 UNK         0.5055 
     38 O          28.6628   29.8512    2.7823 O.2       5 UNK        -0.5220 
     39 N          26.4117   29.7679    2.6914 N.am      6 UNK        -0.4450 
     40 CA         26.1107   30.1273    4.0822 C.3       6 UNK         0.0367 
     41 CB         24.6779   29.6664    4.4093 C.3       6 UNK        -0.1929 
     42 C          26.3405   31.6238    4.3930 C.2       6 UNK         0.5070 
     43 O          25.4739   32.2760    4.9777 O.2       6 UNK        -0.5237 
     44 N          27.5083   32.1379    3.9985 N.am      7 UNK        -0.4739 
     45 CA         27.9916   33.4986    4.2252 C.3       7 UNK         0.0276 
     46 CB         27.2043   34.5294    3.3906 C.3       7 UNK        -0.1927 
     47 C          29.4879   33.5448    3.9042 C.2       7 UNK         0.5013 
     48 O          30.2929   33.8841    4.7724 O.2       7 UNK        -0.5193 
     49 N          29.8404   33.1476    2.6737 N.am      8 UNK        -0.4253 
     50 CA         31.2147   33.0113    2.1874 C.3       8 UNK         0.0242 
     51 CB         31.2139   33.1480    0.6530 C.3       8 UNK        -0.2000 
     52 C          31.8225   31.6783    2.6591 C.2       8 UNK         0.4948 
     53 O          32.0702   30.7900    1.8422 O.2       8 UNK        -0.5275 
     54 N          32.0052   31.5485    3.9794 N.am      9 UNK        -0.4246 
     55 CA         32.4600   30.3440    4.6742 C.3       9 UNK         0.0261 
     56 CB         32.2340   30.5217    6.1862 C.3       9 UNK        -0.1959 
     57 C          33.9183   29.9738    4.3457 C.2       9 UNK         0.5033 
     58 O          34.8236   30.2779    5.1248 O.2       9 UNK        -0.5390 
     59 N          34.1130   29.3094    3.1991 N.am      10 UNK        -0.4215 
     60 CA         35.3957   28.8264    2.6715 C.3       10 UNK         0.0240 
     61 CB         35.1512   28.1321    1.3219 C.3       10 UNK        -0.1982 
     62 C          36.1786   27.8943    3.6169 C.2       10 UNK         0.4970 
     63 O          37.4053   27.8386    3.5218 O.2       10 UNK        -0.4916 
     64 N          35.4687   27.2037    4.5173 N.am      11 UNK        -0.4279 
     65 CA         36.0337   26.4419    5.6395 C.3       11 UNK         0.1003 
     66 C          36.7388   27.2989    6.7351 C.2       11 UNK         0.5709 
     67 N          36.5666   28.6155    6.7798 N.am      11 UNK        -0.7358 
     68 O          37.4720   26.7532    7.5567 O.2       11 UNK        -0.4999 
     69 C69        34.9858   25.4757    6.2540 C.3       12 UNK        -0.0954 
     70 S70        33.4351   26.3072    6.7554 S.3       12 UNK        -0.2268 
     71 C71        32.1689   25.2491    5.9871 C.3       12 UNK         0.0203 
     72 H72        29.1622   24.8846    5.0408 H         1 UNK         0.0888 
     73 H73        28.9365   25.9076    3.6129 H         1 UNK         0.0888 
     74 H74        27.5401   25.3684    4.5372 H         1 UNK         0.0888 
     75 H75        29.8658   24.4942    2.0610 H         1 UNK         0.3017 
     76 H76        28.9585   21.7442    1.7269 H         1 UNK         0.0873 
     77 H77        30.3700   21.9295   -0.4406 H         1 UNK         0.0745 
     78 H78        30.8032   23.5367    0.0578 H         1 UNK         0.0745 
     79 H79        33.3566   23.3632    0.4903 H         1 UNK         0.0705 
     80 H80        33.9866   22.6458    1.9519 H         1 UNK         0.0705 
     81 H81        32.9943   23.3351    4.2180 H         1 UNK         0.1334 
     82 H82        31.3324   27.2808    4.3879 H         1 UNK         0.1417 
     83 H83        32.2032   25.4814    0.5929 H         1 UNK         0.1562 
     84 H84        31.9536   28.1880    1.0823 H         1 UNK         0.0748 
     85 H85        30.8401   28.4851    2.4050 H         1 UNK         0.0748 
     86 H86        29.8293   29.7200    0.4655 H         1 UNK         0.0940 
     87 H87        29.1396   28.9810   -0.9408 H         1 UNK         0.0940 
     88 H88        27.3137   30.0634    0.1024 H         1 UNK         0.0703 
     89 H89        27.3286   27.2012    0.2035 H         1 UNK         0.3081 
     90 H90        24.8891   26.0766    0.7687 H         1 UNK         0.0719 
     91 H91        23.3523   27.4164   -1.5187 H         1 UNK         0.0809 
     92 H92        23.0486   25.7876   -0.9147 H         1 UNK         0.0809 
     93 H93        22.7905   27.1777    0.1270 H         1 UNK         0.0809 
     94 H94        26.2077   25.1137   -0.7069 H         1 UNK         0.2990 
     95 H95        26.6171   25.2355   -4.1402 H         1 UNK         0.0690 
     96 H96        29.0838   25.4615   -3.8744 H         1 UNK         0.0788 
     97 H97        28.8683   26.1989   -2.2858 H         1 UNK         0.0788 
     98 H98        28.3125   27.0312   -3.7304 H         1 UNK         0.0788 
     99 H99        28.0880   23.8856   -2.0638 H         1 UNK         0.2993 
    100 H100       25.6886   21.7018   -0.9523 H         1 UNK         0.0949 
    101 H101       27.6804   20.7060   -3.0601 H         1 UNK         0.0767 
    102 H102       26.8582   19.7154   -1.8529 H         1 UNK         0.0767 
    103 H103       25.9379   20.4836   -3.1325 H         1 UNK         0.0767 
    104 H104       28.3551   21.1890   -0.6596 H         1 UNK         0.3013 
    105 H105       25.6165   29.6160    2.0760 H         1 UNK         0.3121 
    106 H106       26.7904   29.5687    4.7294 H         1 UNK         0.0774 
    107 H107       24.4338   29.8535    5.4559 H         1 UNK         0.0815 
    108 H108       23.9388   30.1903    3.8018 H         1 UNK         0.0815 
    109 H109       24.5559   28.5967    4.2381 H         1 UNK         0.0815 
    110 H110       28.1694   31.4882    3.5756 H         1 UNK         0.2987 
    111 H111       27.8702   33.7367    5.2843 H         1 UNK         0.0949 
    112 H112       27.2101   34.2857    2.3278 H         1 UNK         0.0806 
    113 H113       26.1642   34.5907    3.7104 H         1 UNK         0.0806 
    114 H114       27.6306   35.5275    3.5007 H         1 UNK         0.0806 
    115 H115       29.1120   32.8615    2.0364 H         1 UNK         0.3010 
    116 H116       31.8258   33.8190    2.5964 H         1 UNK         0.0829 
    117 H117       32.2256   33.0620    0.2542 H         1 UNK         0.0813 
    118 H118       30.6097   32.3746    0.1767 H         1 UNK         0.0813 
    119 H119       30.8252   34.1176    0.3410 H         1 UNK         0.0813 
    120 H120       31.7435   32.3362    4.5616 H         1 UNK         0.3038 
    121 H121       31.8256   29.5198    4.3481 H         1 UNK         0.0769 
    122 H122       31.1794   30.6778    6.4141 H         1 UNK         0.0811 
    123 H123       32.7923   31.3710    6.5821 H         1 UNK         0.0811 
    124 H124       32.5558   29.6352    6.7351 H         1 UNK         0.0811 
    125 H125       33.3180   29.2514    2.5735 H         1 UNK         0.3204 
    126 H126       36.0199   29.7051    2.4978 H         1 UNK         0.0748 
    127 H127       34.5276   27.2446    1.4336 H         1 UNK         0.0771 
    128 H128       34.6629   28.8004    0.6121 H         1 UNK         0.0771 
    129 H129       36.0918   27.8134    0.8704 H         1 UNK         0.0771 
    130 H130       34.4645   27.2995    4.5216 H         1 UNK         0.2980 
    131 H131       36.8240   25.8173    5.2187 H         1 UNK         0.0545 
    132 H132       37.0383   29.1457    7.4943 H         1 UNK         0.3459 
    133 H133       35.9569   29.0931    6.1220 H         1 UNK         0.3459 
    134 H134       34.7601   24.6930    5.5302 H         1 UNK         0.0616 
    135 H135       35.3947   24.9528    7.1205 H         1 UNK         0.0616 
    136 H136       31.1887   25.5665    6.3448 H         1 UNK         0.0634 
    137 H137       32.3019   24.2228    6.3330 H         1 UNK         0.0634 
@<TRIPOS>BOND
     1    1    2 1    
     2    1   72 1    
     3    1   73 1    
     4    1   74 1    
     5    2    3 2    
     6    2    4 am   BACKBONE|DICT|INTERRES
     7    4    5 1    
     8    4   75 1    
     9    5    6 1    
    10    5   35 1    
    11    5   76 1    
    12    6    7 1    
    13    6   77 1    
    14    6   78 1    
    15    7    8 1    
    16    8    9 1    
    17    8   79 1    
    18    8   80 1    
    19    9   10 ar   
    20    9   14 ar   
    21   10   11 ar   
    22   10   81 1    
    23   11   12 ar   
    24   11   71 1    
    25   12   13 ar   
    26   12   82 1    
    27   13   14 ar   
    28   13   15 1    
    29   14   83 1    
    30   15   16 1    
    31   15   84 1    
    32   15   85 1    
    33   16   17 1    
    34   17   18 1    
    35   17   86 1    
    36   17   87 1    
    37   18   19 1    
    38   18   37 1    
    39   18   88 1    
    40   19   20 am   BACKBONE|DICT|INTERRES
    41   19   89 1    
    42   20   21 2    
    43   20   22 1    
    44   22   23 1    
    45   22   24 1    
    46   22   90 1    
    47   23   91 1    
    48   23   92 1    
    49   23   93 1    
    50   24   25 am   BACKBONE|DICT|INTERRES
    51   24   94 1    
    52   25   26 2    
    53   25   27 1    
    54   27   28 1    
    55   27   29 1    
    56   27   95 1    
    57   28   96 1    
    58   28   97 1    
    59   28   98 1    
    60   29   30 am   BACKBONE|DICT|INTERRES
    61   29   99 1    
    62   30   31 2    
    63   30   32 1    
    64   32   33 1    
    65   32   34 1    
    66   32  100 1    
    67   33  101 1    
    68   33  102 1    
    69   33  103 1    
    70   34   35 am   BACKBONE|DICT|INTERRES
    71   34  104 1    
    72   35   36 2    
    73   37   38 2    
    74   37   39 am   BACKBONE|DICT|INTERRES
    75   39   40 1    
    76   39  105 1    
    77   40   41 1    
    78   40   42 1    
    79   40  106 1    
    80   41  107 1    
    81   41  108 1    
    82   41  109 1    
    83   42   43 2    
    84   42   44 am   BACKBONE|DICT|INTERRES
    85   44   45 1    
    86   44  110 1    
    87   45   46 1    
    88   45   47 1    
    89   45  111 1    
    90   46  112 1    
    91   46  113 1    
    92   46  114 1    
    93   47   48 2    
    94   47   49 am   BACKBONE|DICT|INTERRES
    95   49   50 1    
    96   49  115 1    
    97   50   51 1    
    98   50   52 1    
    99   50  116 1    
   100   51  117 1    
   101   51  118 1    
   102   51  119 1    
   103   52   53 2    
   104   52   54 am   BACKBONE|DICT|INTERRES
   105   54   55 1    
   106   54  120 1    
   107   55   56 1    
   108   55   57 1    
   109   55  121 1    
   110   56  122 1    
   111   56  123 1    
   112   56  124 1    
   113   57   58 2    
   114   57   59 am   BACKBONE|DICT|INTERRES
   115   59   60 1    
   116   59  125 1    
   117   60   61 1    
   118   60   62 1    
   119   60  126 1    
   120   61  127 1    
   121   61  128 1    
   122   61  129 1    
   123   62   63 2    
   124   62   64 am   BACKBONE|DICT|INTERRES
   125   64   65 1    
   126   64  130 1    
   127   65   66 1    
   128   65   69 1    
   129   65  131 1    
   130   66   67 am   BACKBONE|DICT|INTERRES
   131   66   68 2    
   132   67  132 1    
   133   67  133 1    
   134   69   70 1    
   135   69  134 1    
   136   69  135 1    
   137   70   71 1    
   138   71  136 1    
   139   71  137 1    
@<TRIPOS>SUBSTRUCTURE
     1 UNK         1 GROUP             0       ****    0 ROOT    
