@<TRIPOS>MOLECULE
3R136
137   139    1
SMALL
USER_CHARGES


@<TRIPOS>ATOM
      1 CA         28.2130   21.5897    0.2092 C.3       0 UNK        -0.1979 
      2 C          28.4312   22.6942   -0.8123 C.2       0 UNK         0.4864 
      3 O          27.6233   22.8430   -1.7314 O.2       0 UNK        -0.5359 
      4 N          29.5126   23.4741   -0.6661 N.am      1 UNK        -0.4318 
      5 CA         29.8330   24.6162   -1.5285 C.3       1 UNK         0.0824 
      6 C6         31.2705   25.1578   -1.3158 C.3       12 UNK        -0.0944 
      7 S7         31.6736   25.5619    0.4159 S.3       12 UNK        -0.2672 
      8 C8         32.7355   24.1629    0.9003 C.3       12 UNK         0.0333 
      9 C9         32.4946   23.8248    2.3604 C.ar      12 UNK        -0.0807 
     10 C10        33.1718   24.5175    3.3665 C.ar      12 UNK        -0.0894 
     11 C11        32.8666   24.2928    4.7120 C.ar      12 UNK        -0.0804 
     12 C12        31.8873   23.3525    5.0477 C.ar      12 UNK        -0.0824 
     13 C13        31.2055   22.6519    4.0461 C.ar      12 UNK        -0.0762 
     14 C14        31.5365   22.8701    2.7070 C.ar      12 UNK        -0.0782 
     15 C15        30.0553   21.7180    4.3987 C.3       12 UNK         0.0230 
     16 S16        28.4540   22.3515    3.7829 S.3       12 UNK        -0.2608 
     17 C17        28.4303   24.0373    4.4776 C.3       12 UNK        -0.0989 
     18 CA         28.7104   25.1213    3.3917 C.3       5 UNK         0.0716 
     19 N          27.5546   25.4847    2.5559 N.am      5 UNK        -0.4135 
     20 C          26.3879   25.9975    2.9814 C.2       4 UNK         0.5031 
     21 O          26.0800   26.1096    4.1694 O.2       4 UNK        -0.5229 
     22 CA         25.4077   26.5283    1.9299 C.3       4 UNK         0.0329 
     23 CB         25.6945   28.0161    1.6627 C.3       4 UNK        -0.2001 
     24 N          25.4795   25.8004    0.6638 N.am      4 UNK        -0.4303 
     25 C          24.4524   25.1577    0.0875 C.2       3 UNK         0.5044 
     26 O          23.3619   24.9861    0.6354 O.2       3 UNK        -0.5152 
     27 CA         24.6674   24.6295   -1.3499 C.3       3 UNK         0.0319 
     28 CB         23.3696   24.6271   -2.1856 C.3       3 UNK        -0.2001 
     29 N          25.7524   25.3166   -2.0636 N.am      3 UNK        -0.4354 
     30 C          25.8452   26.6297   -2.3431 C.2       2 UNK         0.4964 
     31 O          24.9127   27.4225   -2.2062 O.2       2 UNK        -0.5047 
     32 CA         27.2208   27.1644   -2.8061 C.3       2 UNK         0.0288 
     33 CB         27.5384   28.5413   -2.1840 C.3       2 UNK        -0.2113 
     34 N          28.3411   26.2368   -2.5820 N.am      2 UNK        -0.4145 
     35 C          28.7495   25.7099   -1.4160 C.2       1 UNK         0.5006 
     36 O          28.2519   25.9809   -0.3153 O.2       1 UNK        -0.5103 
     37 C          29.3619   26.3832    3.9893 C.2       5 UNK         0.5055 
     38 O          30.4438   26.7783    3.5565 O.2       5 UNK        -0.5220 
     39 N          28.6681   27.0362    4.9298 N.am      6 UNK        -0.4450 
     40 CA         29.0629   28.2982    5.5572 C.3       6 UNK         0.0367 
     41 CB         28.3548   28.4249    6.9178 C.3       6 UNK        -0.1929 
     42 C          28.8082   29.5068    4.6324 C.2       6 UNK         0.5070 
     43 O          28.1389   30.4635    5.0266 O.2       6 UNK        -0.5237 
     44 N          29.3409   29.4349    3.4078 N.am      7 UNK        -0.4739 
     45 CA         29.3551   30.5149    2.4246 C.3       7 UNK         0.0276 
     46 CB         29.6796   29.9162    1.0454 C.3       7 UNK        -0.1927 
     47 C          30.4006   31.5723    2.8098 C.2       7 UNK         0.5013 
     48 O          31.4042   31.2328    3.4418 O.2       7 UNK        -0.5193 
     49 N          30.1869   32.8221    2.3767 N.am      8 UNK        -0.4253 
     50 CA         31.0687   33.9661    2.6543 C.3       8 UNK         0.0242 
     51 CB         30.4201   35.2506    2.1128 C.3       8 UNK        -0.2000 
     52 C          32.5021   33.8157    2.1074 C.2       8 UNK         0.4948 
     53 O          33.4300   34.3877    2.6797 O.2       8 UNK        -0.5275 
     54 N          32.6575   33.0361    1.0293 N.am      9 UNK        -0.4246 
     55 CA         33.9448   32.6608    0.4397 C.3       9 UNK         0.0261 
     56 CB         33.7361   32.4041   -1.0633 C.3       9 UNK        -0.1959 
     57 C          34.5903   31.4315    1.1138 C.2       9 UNK         0.5033 
     58 O          35.7072   31.0714    0.7370 O.2       9 UNK        -0.5390 
     59 N          33.8886   30.7943    2.0600 N.am      10 UNK        -0.4215 
     60 CA         34.2977   29.5819    2.7628 C.3       10 UNK         0.0240 
     61 CB         33.3672   28.4285    2.3333 C.3       10 UNK        -0.1982 
     62 C          34.3005   29.8555    4.2776 C.2       10 UNK         0.4970 
     63 O          34.8011   30.8990    4.7014 O.2       10 UNK        -0.4916 
     64 N          33.7689   28.9161    5.0681 N.am      11 UNK        -0.4279 
     65 CA         33.6673   28.9823    6.5344 C.3       11 UNK         0.1003 
     66 C          32.5166   29.8788    7.0854 C.2       11 UNK         0.5709 
     67 N          31.7420   30.5759    6.2637 N.am      11 UNK        -0.7358 
     68 O          32.3338   29.9646    8.2975 O.2       11 UNK        -0.4999 
     69 C69        33.6921   27.5631    7.1723 C.3       12 UNK        -0.0954 
     70 S70        32.4778   26.4049    6.4494 S.3       12 UNK        -0.2268 
     71 C71        33.5667   25.0990    5.7949 C.3       12 UNK         0.0203 
     72 H72        29.0866   21.4388    0.8413 H         1 UNK         0.0888 
     73 H73        27.3656   21.8351    0.8489 H         1 UNK         0.0888 
     74 H74        27.9978   20.6484   -0.2955 H         1 UNK         0.0888 
     75 H75        30.1192   23.3570    0.1303 H         1 UNK         0.3017 
     76 H76        29.7973   24.2347   -2.5517 H         1 UNK         0.0873 
     77 H77        31.9922   24.4304   -1.6902 H         1 UNK         0.0745 
     78 H78        31.4330   26.0531   -1.9190 H         1 UNK         0.0745 
     79 H79        33.7813   24.4251    0.7332 H         1 UNK         0.0705 
     80 H80        32.5303   23.2897    0.2794 H         1 UNK         0.0705 
     81 H81        33.9109   25.2577    3.0975 H         1 UNK         0.1334 
     82 H82        31.6300   23.2001    6.0870 H         1 UNK         0.1417 
     83 H83        30.9997   22.3384    1.9356 H         1 UNK         0.1562 
     84 H84        29.9888   21.5734    5.4781 H         1 UNK         0.0748 
     85 H85        30.2408   20.7338    3.9663 H         1 UNK         0.0748 
     86 H86        29.1646   24.0870    5.2834 H         1 UNK         0.0940 
     87 H87        27.4707   24.1884    4.9705 H         1 UNK         0.0940 
     88 H88        29.4496   24.7222    2.6963 H         1 UNK         0.0703 
     89 H89        27.7501   25.5112    1.5601 H         1 UNK         0.3081 
     90 H90        24.4065   26.4501    2.3587 H         1 UNK         0.0719 
     91 H91        25.6271   28.6005    2.5816 H         1 UNK         0.0809 
     92 H92        26.6943   28.1670    1.2539 H         1 UNK         0.0809 
     93 H93        24.9784   28.4364    0.9562 H         1 UNK         0.0809 
     94 H94        26.3511   25.8767    0.1481 H         1 UNK         0.2990 
     95 H95        24.9889   23.5929   -1.2405 H         1 UNK         0.0690 
     96 H96        22.9381   25.6250   -2.2688 H         1 UNK         0.0788 
     97 H97        22.6136   23.9847   -1.7325 H         1 UNK         0.0788 
     98 H98        23.5478   24.2527   -3.1936 H         1 UNK         0.0788 
     99 H99        26.5718   24.7401   -2.2183 H         1 UNK         0.2993 
    100 H100       27.1419   27.2965   -3.8863 H         1 UNK         0.0949 
    101 H101       27.5427   28.4993   -1.0950 H         1 UNK         0.0767 
    102 H102       28.5110   28.9107   -2.5091 H         1 UNK         0.0767 
    103 H103       26.7971   29.2861   -2.4761 H         1 UNK         0.0767 
    104 H104       28.8011   25.9217   -3.4257 H         1 UNK         0.3013 
    105 H105       27.7249   26.7079    5.1151 H         1 UNK         0.3121 
    106 H106       30.1372   28.2660    5.7468 H         1 UNK         0.0774 
    107 H107       28.6681   29.3320    7.4365 H         1 UNK         0.0815 
    108 H108       27.2707   28.4672    6.8062 H         1 UNK         0.0815 
    109 H109       28.5951   27.5840    7.5685 H         1 UNK         0.0815 
    110 H110       29.8977   28.6114    3.1966 H         1 UNK         0.2987 
    111 H111       28.3661   30.9774    2.3954 H         1 UNK         0.0949 
    112 H112       29.6176   30.6726    0.2622 H         1 UNK         0.0806 
    113 H113       30.6844   29.4927    1.0127 H         1 UNK         0.0806 
    114 H114       28.9809   29.1218    0.7835 H         1 UNK         0.0806 
    115 H115       29.3471   33.0184    1.8505 H         1 UNK         0.3010 
    116 H116       31.1503   34.0565    3.7398 H         1 UNK         0.0829 
    117 H117       29.4471   35.4289    2.5710 H         1 UNK         0.0813 
    118 H118       31.0406   36.1218    2.3281 H         1 UNK         0.0813 
    119 H119       30.2816   35.2091    1.0317 H         1 UNK         0.0813 
    120 H120       31.8335   32.6201    0.6205 H         1 UNK         0.3038 
    121 H121       34.6439   33.4929    0.5479 H         1 UNK         0.0769 
    122 H122       33.3226   33.2807   -1.5624 H         1 UNK         0.0811 
    123 H123       34.6809   32.1707   -1.5562 H         1 UNK         0.0811 
    124 H124       33.0613   31.5655   -1.2403 H         1 UNK         0.0811 
    125 H125       33.0147   31.1959    2.3889 H         1 UNK         0.3204 
    126 H126       35.3213   29.3125    2.4958 H         1 UNK         0.0748 
    127 H127       33.3660   28.3054    1.2500 H         1 UNK         0.0771 
    128 H128       33.6889   27.4781    2.7554 H         1 UNK         0.0771 
    129 H129       32.3357   28.5988    2.6443 H         1 UNK         0.0771 
    130 H130       33.3358   28.1079    4.6448 H         1 UNK         0.2980 
    131 H131       34.5725   29.4800    6.8871 H         1 UNK         0.0545 
    132 H132       31.8851   30.5794    5.2600 H         1 UNK         0.3459 
    133 H133       31.0230   31.1581    6.6599 H         1 UNK         0.3459 
    134 H134       34.6933   27.1449    7.0620 H         1 UNK         0.0616 
    135 H135       33.5253   27.6095    8.2498 H         1 UNK         0.0616 
    136 H136       33.8755   24.4431    6.6099 H         1 UNK         0.0634 
    137 H137       34.4770   25.5461    5.3926 H         1 UNK         0.0634 
@<TRIPOS>BOND
     1    1    2 1    
     2    1   72 1    
     3    1   73 1    
     4    1   74 1    
     5    2    3 2    
     6    2    4 am   BACKBONE|DICT|INTERRES
     7    4    5 1    
     8    4   75 1    
     9    5    6 1    
    10    5   35 1    
    11    5   76 1    
    12    6    7 1    
    13    6   77 1    
    14    6   78 1    
    15    7    8 1    
    16    8    9 1    
    17    8   79 1    
    18    8   80 1    
    19    9   10 ar   
    20    9   14 ar   
    21   10   11 ar   
    22   10   81 1    
    23   11   12 ar   
    24   11   71 1    
    25   12   13 ar   
    26   12   82 1    
    27   13   14 ar   
    28   13   15 1    
    29   14   83 1    
    30   15   16 1    
    31   15   84 1    
    32   15   85 1    
    33   16   17 1    
    34   17   18 1    
    35   17   86 1    
    36   17   87 1    
    37   18   19 1    
    38   18   37 1    
    39   18   88 1    
    40   19   20 am   BACKBONE|DICT|INTERRES
    41   19   89 1    
    42   20   21 2    
    43   20   22 1    
    44   22   23 1    
    45   22   24 1    
    46   22   90 1    
    47   23   91 1    
    48   23   92 1    
    49   23   93 1    
    50   24   25 am   BACKBONE|DICT|INTERRES
    51   24   94 1    
    52   25   26 2    
    53   25   27 1    
    54   27   28 1    
    55   27   29 1    
    56   27   95 1    
    57   28   96 1    
    58   28   97 1    
    59   28   98 1    
    60   29   30 am   BACKBONE|DICT|INTERRES
    61   29   99 1    
    62   30   31 2    
    63   30   32 1    
    64   32   33 1    
    65   32   34 1    
    66   32  100 1    
    67   33  101 1    
    68   33  102 1    
    69   33  103 1    
    70   34   35 am   BACKBONE|DICT|INTERRES
    71   34  104 1    
    72   35   36 2    
    73   37   38 2    
    74   37   39 am   BACKBONE|DICT|INTERRES
    75   39   40 1    
    76   39  105 1    
    77   40   41 1    
    78   40   42 1    
    79   40  106 1    
    80   41  107 1    
    81   41  108 1    
    82   41  109 1    
    83   42   43 2    
    84   42   44 am   BACKBONE|DICT|INTERRES
    85   44   45 1    
    86   44  110 1    
    87   45   46 1    
    88   45   47 1    
    89   45  111 1    
    90   46  112 1    
    91   46  113 1    
    92   46  114 1    
    93   47   48 2    
    94   47   49 am   BACKBONE|DICT|INTERRES
    95   49   50 1    
    96   49  115 1    
    97   50   51 1    
    98   50   52 1    
    99   50  116 1    
   100   51  117 1    
   101   51  118 1    
   102   51  119 1    
   103   52   53 2    
   104   52   54 am   BACKBONE|DICT|INTERRES
   105   54   55 1    
   106   54  120 1    
   107   55   56 1    
   108   55   57 1    
   109   55  121 1    
   110   56  122 1    
   111   56  123 1    
   112   56  124 1    
   113   57   58 2    
   114   57   59 am   BACKBONE|DICT|INTERRES
   115   59   60 1    
   116   59  125 1    
   117   60   61 1    
   118   60   62 1    
   119   60  126 1    
   120   61  127 1    
   121   61  128 1    
   122   61  129 1    
   123   62   63 2    
   124   62   64 am   BACKBONE|DICT|INTERRES
   125   64   65 1    
   126   64  130 1    
   127   65   66 1    
   128   65   69 1    
   129   65  131 1    
   130   66   67 am   BACKBONE|DICT|INTERRES
   131   66   68 2    
   132   67  132 1    
   133   67  133 1    
   134   69   70 1    
   135   69  134 1    
   136   69  135 1    
   137   70   71 1    
   138   71  136 1    
   139   71  137 1    
@<TRIPOS>SUBSTRUCTURE
     1 UNK         1 GROUP             0       ****    0 ROOT    
