@<TRIPOS>MOLECULE
3R136
137   139    1
SMALL
USER_CHARGES


@<TRIPOS>ATOM
      1 CA         30.6565   24.2750    5.3369 C.3       0 UNK        -0.1979 
      2 C          29.4408   24.1770    4.4292 C.2       0 UNK         0.4864 
      3 O          28.3101   24.1984    4.9195 O.2       0 UNK        -0.5359 
      4 N          29.6536   24.0676    3.1106 N.am      1 UNK        -0.4318 
      5 CA         28.6013   23.8989    2.1004 C.3       1 UNK         0.0824 
      6 C6         29.0875   23.1023    0.8608 C.3       12 UNK        -0.0944 
      7 S7         29.8599   21.5065    1.3358 S.3       12 UNK        -0.2672 
      8 C8         31.4923   21.4801    0.5063 C.3       12 UNK         0.0333 
      9 C9         32.1787   22.8386    0.4639 C.ar      12 UNK        -0.0807 
     10 C10        32.6561   23.4392    1.6314 C.ar      12 UNK        -0.0894 
     11 C11        33.2012   24.7266    1.5895 C.ar      12 UNK        -0.0804 
     12 C12        33.2652   25.4101    0.3708 C.ar      12 UNK        -0.0824 
     13 C13        32.7966   24.8185   -0.8070 C.ar      12 UNK        -0.0762 
     14 C14        32.2890   23.5151   -0.7532 C.ar      12 UNK        -0.0782 
     15 C15        32.8251   25.6216   -2.1103 C.3       12 UNK         0.0230 
     16 S16        31.5396   25.1770   -3.3384 S.3       12 UNK        -0.2608 
     17 C17        30.0018   25.2434   -2.3539 C.3       12 UNK        -0.0989 
     18 CA         29.0522   26.3994   -2.7426 C.3       5 UNK         0.0716 
     19 N          27.6934   26.1478   -2.2672 N.am      5 UNK        -0.4135 
     20 C          26.7283   25.5647   -2.9887 C.2       4 UNK         0.5031 
     21 O          26.8655   25.2006   -4.1575 O.2       4 UNK        -0.5229 
     22 CA         25.3771   25.3309   -2.2903 C.3       4 UNK         0.0329 
     23 CB         25.3532   23.9432   -1.6291 C.3       4 UNK        -0.2001 
     24 N          25.0611   26.3428   -1.2823 N.am      4 UNK        -0.4303 
     25 C          24.8015   27.6339   -1.5226 C.2       3 UNK         0.5044 
     26 O          24.7435   28.1187   -2.6529 O.2       3 UNK        -0.5152 
     27 CA         24.5982   28.5510   -0.3023 C.3       3 UNK         0.0319 
     28 CB         23.1210   28.5845    0.1359 C.3       3 UNK        -0.2001 
     29 N          25.4995   28.2624    0.8239 N.am      3 UNK        -0.4354 
     30 C          25.5255   27.1942    1.6322 C.2       2 UNK         0.4964 
     31 O          24.7338   26.2516    1.5640 O.2       2 UNK        -0.5047 
     32 CA         26.6506   27.1595    2.6758 C.3       2 UNK         0.0288 
     33 CB         26.1236   27.5369    4.0691 C.3       2 UNK        -0.2113 
     34 N          27.2979   25.8533    2.7399 N.am      2 UNK        -0.4145 
     35 C          27.9914   25.2736    1.7515 C.2       1 UNK         0.5006 
     36 O          28.1897   25.8006    0.6503 O.2       1 UNK        -0.5103 
     37 C          29.5571   27.7564   -2.2275 C.2       5 UNK         0.5055 
     38 O          29.9989   28.5764   -3.0345 O.2       5 UNK        -0.5220 
     39 N          29.4958   27.9711   -0.9060 N.am      6 UNK        -0.4450 
     40 CA         30.0477   29.1534   -0.2435 C.3       6 UNK         0.0367 
     41 CB         31.4922   28.8560    0.2169 C.3       6 UNK        -0.1929 
     42 C          29.1044   29.6172    0.8752 C.2       6 UNK         0.5070 
     43 O          27.8970   29.7119    0.6498 O.2       6 UNK        -0.5237 
     44 N          29.6554   29.9016    2.0568 N.am      7 UNK        -0.4739 
     45 CA         28.9574   30.3254    3.2644 C.3       7 UNK         0.0276 
     46 CB         28.8462   31.8594    3.2868 C.3       7 UNK        -0.1927 
     47 C          29.7752   29.8232    4.4550 C.2       7 UNK         0.5013 
     48 O          30.9973   29.7047    4.3339 O.2       7 UNK        -0.5193 
     49 N          29.1184   29.5918    5.5989 N.am      8 UNK        -0.4253 
     50 CA         29.7609   29.1227    6.8344 C.3       8 UNK         0.0242 
     51 CB         28.6920   28.8722    7.9094 C.3       8 UNK        -0.2000 
     52 C          30.8531   30.0727    7.3610 C.2       8 UNK         0.4948 
     53 O          31.8667   29.6035    7.8772 O.2       8 UNK        -0.5275 
     54 N          30.6527   31.3841    7.1670 N.am      9 UNK        -0.4246 
     55 CA         31.6255   32.4339    7.4783 C.3       9 UNK         0.0261 
     56 CB         30.9251   33.8015    7.4206 C.3       9 UNK        -0.1959 
     57 C          32.8628   32.4263    6.5593 C.2       9 UNK         0.5033 
     58 O          33.9162   32.9061    6.9807 O.2       9 UNK        -0.5390 
     59 N          32.7239   31.8987    5.3340 N.am      10 UNK        -0.4215 
     60 CA         33.8210   31.7310    4.3799 C.3       10 UNK         0.0240 
     61 CB         33.2839   31.8141    2.9407 C.3       10 UNK        -0.1982 
     62 C          34.5573   30.4050    4.6201 C.2       10 UNK         0.4970 
     63 O          35.7886   30.3898    4.5941 O.2       10 UNK        -0.4916 
     64 N          33.7975   29.3271    4.8592 N.am      11 UNK        -0.4279 
     65 CA         34.3212   27.9994    5.2093 C.3       11 UNK         0.1003 
     66 C          35.0545   27.9585    6.5788 C.2       11 UNK         0.5709 
     67 N          34.5632   28.6401    7.6062 N.am      11 UNK        -0.7358 
     68 O          36.0851   27.3019    6.7071 O.2       11 UNK        -0.4999 
     69 C69        33.2211   26.9109    5.1498 C.3       12 UNK        -0.0954 
     70 S70        32.5627   26.6527    3.4694 S.3       12 UNK        -0.2268 
     71 C71        33.7151   25.3825    2.8609 C.3       12 UNK         0.0203 
     72 H72        30.5787   23.5516    6.1480 H         1 UNK         0.0888 
     73 H73        30.7168   25.2714    5.7733 H         1 UNK         0.0888 
     74 H74        31.5824   24.0766    4.7987 H         1 UNK         0.0888 
     75 H75        30.5961   24.0945    2.7481 H         1 UNK         0.3017 
     76 H76        27.7962   23.3079    2.5436 H         1 UNK         0.0873 
     77 H77        29.7732   23.7034    0.2712 H         1 UNK         0.0745 
     78 H78        28.2459   22.8852    0.2012 H         1 UNK         0.0745 
     79 H79        32.1371   20.7665    1.0210 H         1 UNK         0.0705 
     80 H80        31.3564   21.0888   -0.5031 H         1 UNK         0.0705 
     81 H81        32.5853   22.9084    2.5712 H         1 UNK         0.1334 
     82 H82        33.6684   26.4135    0.3463 H         1 UNK         0.1417 
     83 H83        31.9248   23.0404   -1.6535 H         1 UNK         0.1562 
     84 H84        33.8047   25.4976   -2.5732 H         1 UNK         0.0748 
     85 H85        32.7208   26.6845   -1.8918 H         1 UNK         0.0748 
     86 H86        30.2240   25.2856   -1.2884 H         1 UNK         0.0940 
     87 H87        29.4991   24.2870   -2.5070 H         1 UNK         0.0940 
     88 H88        29.0295   26.4719   -3.8325 H         1 UNK         0.0703 
     89 H89        27.5059   26.3725   -1.2981 H         1 UNK         0.3081 
     90 H90        24.5985   25.3634   -3.0553 H         1 UNK         0.0719 
     91 H91        26.0922   23.8643   -0.8308 H         1 UNK         0.0809 
     92 H92        24.3742   23.7241   -1.2023 H         1 UNK         0.0809 
     93 H93        25.5716   23.1595   -2.3560 H         1 UNK         0.0809 
     94 H94        25.0352   26.0424   -0.3118 H         1 UNK         0.2990 
     95 H95        24.8635   29.5583   -0.6277 H         1 UNK         0.0690 
     96 H96        22.9701   29.2726    0.9677 H         1 UNK         0.0788 
     97 H97        22.7603   27.6024    0.4425 H         1 UNK         0.0788 
     98 H98        22.4828   28.9201   -0.6825 H         1 UNK         0.0788 
     99 H99        26.2729   28.9230    0.9045 H         1 UNK         0.2993 
    100 H100       27.4212   27.8709    2.3915 H         1 UNK         0.0949 
    101 H101       25.6754   28.5314    4.0617 H         1 UNK         0.0767 
    102 H102       25.3597   26.8373    4.4114 H         1 UNK         0.0767 
    103 H103       26.9247   27.5445    4.8087 H         1 UNK         0.0767 
    104 H104       27.2431   25.3542    3.6220 H         1 UNK         0.3013 
    105 H105       29.0885   27.2665   -0.2963 H         1 UNK         0.3121 
    106 H106       30.0847   29.9877   -0.9470 H         1 UNK         0.0774 
    107 H107       32.1205   28.5793   -0.6285 H         1 UNK         0.0815 
    108 H108       31.5275   28.0377    0.9371 H         1 UNK         0.0815 
    109 H109       31.9590   29.7298    0.6722 H         1 UNK         0.0815 
    110 H110       30.6432   29.7295    2.2002 H         1 UNK         0.2987 
    111 H111       27.9596   29.8871    3.3025 H         1 UNK         0.0949 
    112 H112       29.8271   32.3362    3.2617 H         1 UNK         0.0806 
    113 H113       28.2769   32.2256    2.4322 H         1 UNK         0.0806 
    114 H114       28.3351   32.2052    4.1861 H         1 UNK         0.0806 
    115 H115       28.1196   29.7371    5.6338 H         1 UNK         0.3010 
    116 H116       30.2441   28.1698    6.6084 H         1 UNK         0.0829 
    117 H117       27.9698   28.1229    7.5843 H         1 UNK         0.0813 
    118 H118       29.1454   28.5030    8.8306 H         1 UNK         0.0813 
    119 H119       28.1448   29.7825    8.1578 H         1 UNK         0.0813 
    120 H120       29.7836   31.6776    6.7458 H         1 UNK         0.3038 
    121 H121       31.9779   32.2731    8.4995 H         1 UNK         0.0769 
    122 H122       30.5345   34.0149    6.4248 H         1 UNK         0.0811 
    123 H123       31.6172   34.6049    7.6776 H         1 UNK         0.0811 
    124 H124       30.0961   33.8539    8.1266 H         1 UNK         0.0811 
    125 H125       31.8471   31.4563    5.0890 H         1 UNK         0.3204 
    126 H126       34.5397   32.5429    4.5120 H         1 UNK         0.0748 
    127 H127       32.7806   32.7641    2.7603 H         1 UNK         0.0771 
    128 H128       34.0976   31.7361    2.2186 H         1 UNK         0.0771 
    129 H129       32.5780   31.0148    2.7193 H         1 UNK         0.0771 
    130 H130       32.7865   29.4088    4.7986 H         1 UNK         0.2980 
    131 H131       35.0700   27.7475    4.4558 H         1 UNK         0.0545 
    132 H132       35.0483   28.6126    8.4881 H         1 UNK         0.3459 
    133 H133       33.6636   29.1090    7.5438 H         1 UNK         0.3459 
    134 H134       33.5925   25.9568    5.5282 H         1 UNK         0.0616 
    135 H135       32.3894   27.1859    5.8003 H         1 UNK         0.0616 
    136 H136       33.8729   24.6274    3.6323 H         1 UNK         0.0634 
    137 H137       34.6875   25.8402    2.6735 H         1 UNK         0.0634 
@<TRIPOS>BOND
     1    1    2 1    
     2    1   72 1    
     3    1   73 1    
     4    1   74 1    
     5    2    3 2    
     6    2    4 am   BACKBONE|DICT|INTERRES
     7    4    5 1    
     8    4   75 1    
     9    5    6 1    
    10    5   35 1    
    11    5   76 1    
    12    6    7 1    
    13    6   77 1    
    14    6   78 1    
    15    7    8 1    
    16    8    9 1    
    17    8   79 1    
    18    8   80 1    
    19    9   10 ar   
    20    9   14 ar   
    21   10   11 ar   
    22   10   81 1    
    23   11   12 ar   
    24   11   71 1    
    25   12   13 ar   
    26   12   82 1    
    27   13   14 ar   
    28   13   15 1    
    29   14   83 1    
    30   15   16 1    
    31   15   84 1    
    32   15   85 1    
    33   16   17 1    
    34   17   18 1    
    35   17   86 1    
    36   17   87 1    
    37   18   19 1    
    38   18   37 1    
    39   18   88 1    
    40   19   20 am   BACKBONE|DICT|INTERRES
    41   19   89 1    
    42   20   21 2    
    43   20   22 1    
    44   22   23 1    
    45   22   24 1    
    46   22   90 1    
    47   23   91 1    
    48   23   92 1    
    49   23   93 1    
    50   24   25 am   BACKBONE|DICT|INTERRES
    51   24   94 1    
    52   25   26 2    
    53   25   27 1    
    54   27   28 1    
    55   27   29 1    
    56   27   95 1    
    57   28   96 1    
    58   28   97 1    
    59   28   98 1    
    60   29   30 am   BACKBONE|DICT|INTERRES
    61   29   99 1    
    62   30   31 2    
    63   30   32 1    
    64   32   33 1    
    65   32   34 1    
    66   32  100 1    
    67   33  101 1    
    68   33  102 1    
    69   33  103 1    
    70   34   35 am   BACKBONE|DICT|INTERRES
    71   34  104 1    
    72   35   36 2    
    73   37   38 2    
    74   37   39 am   BACKBONE|DICT|INTERRES
    75   39   40 1    
    76   39  105 1    
    77   40   41 1    
    78   40   42 1    
    79   40  106 1    
    80   41  107 1    
    81   41  108 1    
    82   41  109 1    
    83   42   43 2    
    84   42   44 am   BACKBONE|DICT|INTERRES
    85   44   45 1    
    86   44  110 1    
    87   45   46 1    
    88   45   47 1    
    89   45  111 1    
    90   46  112 1    
    91   46  113 1    
    92   46  114 1    
    93   47   48 2    
    94   47   49 am   BACKBONE|DICT|INTERRES
    95   49   50 1    
    96   49  115 1    
    97   50   51 1    
    98   50   52 1    
    99   50  116 1    
   100   51  117 1    
   101   51  118 1    
   102   51  119 1    
   103   52   53 2    
   104   52   54 am   BACKBONE|DICT|INTERRES
   105   54   55 1    
   106   54  120 1    
   107   55   56 1    
   108   55   57 1    
   109   55  121 1    
   110   56  122 1    
   111   56  123 1    
   112   56  124 1    
   113   57   58 2    
   114   57   59 am   BACKBONE|DICT|INTERRES
   115   59   60 1    
   116   59  125 1    
   117   60   61 1    
   118   60   62 1    
   119   60  126 1    
   120   61  127 1    
   121   61  128 1    
   122   61  129 1    
   123   62   63 2    
   124   62   64 am   BACKBONE|DICT|INTERRES
   125   64   65 1    
   126   64  130 1    
   127   65   66 1    
   128   65   69 1    
   129   65  131 1    
   130   66   67 am   BACKBONE|DICT|INTERRES
   131   66   68 2    
   132   67  132 1    
   133   67  133 1    
   134   69   70 1    
   135   69  134 1    
   136   69  135 1    
   137   70   71 1    
   138   71  136 1    
   139   71  137 1    
@<TRIPOS>SUBSTRUCTURE
     1 UNK         1 GROUP             0       ****    0 ROOT    
