@<TRIPOS>MOLECULE
3R136
137   139    1
SMALL
USER_CHARGES


@<TRIPOS>ATOM
      1 CA         27.3252   21.7057    0.9643 C.3       0 UNK        -0.1979 
      2 C          27.8066   22.4887   -0.2478 C.2       0 UNK         0.4864 
      3 O          27.0359   22.7032   -1.1854 O.2       0 UNK        -0.5359 
      4 N          29.0753   22.9206   -0.2419 N.am      1 UNK        -0.4318 
      5 CA         29.6491   23.8096   -1.2559 C.3       1 UNK         0.0824 
      6 C6         31.1995   23.8414   -1.2049 C.3       12 UNK        -0.0944 
      7 S7         31.8896   24.3747    0.3987 S.3       12 UNK        -0.2672 
      8 C8         32.4180   22.8066    1.1513 C.3       12 UNK         0.0333 
      9 C9         32.2638   22.8876    2.6603 C.ar      12 UNK        -0.0807 
     10 C10        33.2730   23.4507    3.4477 C.ar      12 UNK        -0.0894 
     11 C11        33.1046   23.5826    4.8302 C.ar      12 UNK        -0.0804 
     12 C12        31.9162   23.1417    5.4216 C.ar      12 UNK        -0.0824 
     13 C13        30.9036   22.5681    4.6440 C.ar      12 UNK        -0.0762 
     14 C14        31.0904   22.4321    3.2666 C.ar      12 UNK        -0.0782 
     15 C15        29.5967   22.1189    5.2894 C.3       12 UNK         0.0230 
     16 S16        28.1342   22.9859    4.6176 S.3       12 UNK        -0.2608 
     17 C17        28.6202   24.7369    4.7835 C.3       12 UNK        -0.0989 
     18 CA         28.5447   25.4820    3.4222 C.3       5 UNK         0.0716 
     19 N          27.1360   25.7814    3.1031 N.am      5 UNK        -0.4135 
     20 C          26.5725   26.7936    2.4237 C.2       4 UNK         0.5031 
     21 O          27.1606   27.7576    1.9319 O.2       4 UNK        -0.5229 
     22 CA         25.0545   26.7032    2.2357 C.3       4 UNK         0.0329 
     23 CB         24.3549   28.0058    2.6611 C.3       4 UNK        -0.2001 
     24 N          24.8158   26.4713    0.8175 N.am      4 UNK        -0.4303 
     25 C          24.5874   25.2782    0.2616 C.2       3 UNK         0.5044 
     26 O          24.3887   24.2479    0.9063 O.2       3 UNK        -0.5152 
     27 CA         24.6147   25.2153   -1.2751 C.3       3 UNK         0.0319 
     28 CB         23.4032   25.9315   -1.9057 C.3       3 UNK        -0.2001 
     29 N          25.8922   25.6694   -1.8431 N.am      3 UNK        -0.4354 
     30 C          26.4235   26.9040   -1.8572 C.2       2 UNK         0.4964 
     31 O          25.8314   27.9045   -1.4483 O.2       2 UNK        -0.5047 
     32 CA         27.8591   27.0411   -2.4159 C.3       2 UNK         0.0288 
     33 CB         28.6104   28.2548   -1.8222 C.3       2 UNK        -0.2113 
     34 N          28.6530   25.8078   -2.2850 N.am      2 UNK        -0.4145 
     35 C          29.0103   25.2103   -1.1376 C.2       1 UNK         0.5006 
     36 O          28.8185   25.6933   -0.0192 O.2       1 UNK        -0.5103 
     37 C          29.5093   26.6875    3.3943 C.2       5 UNK         0.5055 
     38 O          29.8211   27.2377    4.4512 O.2       5 UNK        -0.5220 
     39 N          29.9406   27.0703    2.1816 N.am      6 UNK        -0.4450 
     40 CA         30.8247   28.1928    1.8469 C.3       6 UNK         0.0367 
     41 CB         32.2931   27.7959    2.0835 C.3       6 UNK        -0.1929 
     42 C          30.4403   29.5230    2.5290 C.2       6 UNK         0.5070 
     43 O          31.3223   30.2505    3.0021 O.2       6 UNK        -0.5237 
     44 N          29.1298   29.8028    2.5894 N.am      7 UNK        -0.4739 
     45 CA         28.5264   30.9730    3.2305 C.3       7 UNK         0.0276 
     46 CB         26.9963   30.8903    3.1055 C.3       7 UNK        -0.1927 
     47 C          29.0614   32.2891    2.6453 C.2       7 UNK         0.5013 
     48 O          28.8275   32.5703    1.4685 O.2       7 UNK        -0.5193 
     49 N          29.8136   33.0300    3.4723 N.am      8 UNK        -0.4253 
     50 CA         30.5581   34.2596    3.1609 C.3       8 UNK         0.0242 
     51 CB         29.6078   35.3897    2.7101 C.3       8 UNK        -0.2000 
     52 C          31.7384   34.0725    2.1816 C.2       8 UNK         0.4948 
     53 O          32.3789   35.0651    1.8312 O.2       8 UNK        -0.5275 
     54 N          32.0295   32.8289    1.7760 N.am      9 UNK        -0.4246 
     55 CA         33.1528   32.4688    0.9115 C.3       9 UNK         0.0261 
     56 CB         32.7021   31.4107   -0.1098 C.3       9 UNK        -0.1959 
     57 C          34.3400   31.9585    1.7393 C.2       9 UNK         0.5033 
     58 O          35.4771   32.3285    1.4426 O.2       9 UNK        -0.5390 
     59 N          34.0642   31.1394    2.7635 N.am      10 UNK        -0.4215 
     60 CA         35.0602   30.5924    3.6814 C.3       10 UNK         0.0240 
     61 CB         35.8695   29.4546    3.0179 C.3       10 UNK        -0.1982 
     62 C          34.3758   30.1625    4.9831 C.2       10 UNK         0.4970 
     63 O          34.3778   30.9282    5.9470 O.2       10 UNK        -0.4916 
     64 N          33.8250   28.9430    4.9886 N.am      11 UNK        -0.4279 
     65 CA         33.2315   28.2749    6.1589 C.3       11 UNK         0.1003 
     66 C          31.9305   28.9261    6.7127 C.2       11 UNK         0.5709 
     67 N          31.2432   29.7887    5.9735 N.am      11 UNK        -0.7358 
     68 O          31.5531   28.6590    7.8514 O.2       11 UNK        -0.4999 
     69 C69        33.0401   26.7493    5.9241 C.3       12 UNK        -0.0954 
     70 S70        34.5453   25.9278    5.2975 S.3       12 UNK        -0.2268 
     71 C71        34.2150   24.1793    5.6869 C.3       12 UNK         0.0203 
     72 H72        26.5344   22.2575    1.4725 H         1 UNK         0.0888 
     73 H73        26.9234   20.7417    0.6539 H         1 UNK         0.0888 
     74 H74        28.1254   21.5245    1.6806 H         1 UNK         0.0888 
     75 H75        29.6571   22.7654    0.5662 H         1 UNK         0.3017 
     76 H76        29.3720   23.4005   -2.2302 H         1 UNK         0.0873 
     77 H77        31.5962   22.8568   -1.4571 H         1 UNK         0.0745 
     78 H78        31.5849   24.5115   -1.9755 H         1 UNK         0.0745 
     79 H79        33.4559   22.6053    0.8818 H         1 UNK         0.0705 
     80 H80        31.8289   21.9764    0.7591 H         1 UNK         0.0705 
     81 H81        34.1829   23.8050    2.9826 H         1 UNK         0.1334 
     82 H82        31.7782   23.2484    6.4890 H         1 UNK         0.1417 
     83 H83        30.3054   21.9954    2.6670 H         1 UNK         0.1562 
     84 H84        29.6260   22.2734    6.3692 H         1 UNK         0.0748 
     85 H85        29.4732   21.0459    5.1370 H         1 UNK         0.0748 
     86 H86        29.6215   24.7870    5.2127 H         1 UNK         0.0940 
     87 H87        27.9765   25.2176    5.5226 H         1 UNK         0.0940 
     88 H88        28.9001   24.8032    2.6441 H         1 UNK         0.0703 
     89 H89        26.5036   25.0633    3.4243 H         1 UNK         0.3081 
     90 H90        24.6515   25.8858    2.8376 H         1 UNK         0.0719 
     91 H91        24.5472   28.2259    3.7119 H         1 UNK         0.0809 
     92 H92        24.6991   28.8619    2.0790 H         1 UNK         0.0809 
     93 H93        23.2746   27.9317    2.5362 H         1 UNK         0.0809 
     94 H94        25.0694   27.2310    0.1905 H         1 UNK         0.2990 
     95 H95        24.5391   24.1603   -1.5439 H         1 UNK         0.0690 
     96 H96        23.3789   26.9951   -1.6682 H         1 UNK         0.0788 
     97 H97        22.4693   25.5005   -1.5428 H         1 UNK         0.0788 
     98 H98        23.4060   25.8311   -2.9910 H         1 UNK         0.0788 
     99 H99        26.4860   24.9132   -2.1577 H         1 UNK         0.2993 
    100 H100       27.7462   27.2177   -3.4866 H         1 UNK         0.0949 
    101 H101       28.6399   28.2195   -0.7324 H         1 UNK         0.0767 
    102 H102       29.6362   28.3082   -2.1866 H         1 UNK         0.0767 
    103 H103       28.1195   29.1890   -2.0976 H         1 UNK         0.0767 
    104 H104       28.8624   25.3368   -3.1550 H         1 UNK         0.3013 
    105 H105       29.5451   26.5779    1.3790 H         1 UNK         0.3121 
    106 H106       30.7019   28.3653    0.7771 H         1 UNK         0.0774 
    107 H107       32.9722   28.6104    1.8360 H         1 UNK         0.0815 
    108 H108       32.4628   27.5109    3.1185 H         1 UNK         0.0815 
    109 H109       32.5785   26.9510    1.4601 H         1 UNK         0.0815 
    110 H110       28.4803   29.1132    2.2150 H         1 UNK         0.2987 
    111 H111       28.7782   30.9266    4.2918 H         1 UNK         0.0949 
    112 H112       26.6070   30.0083    3.6140 H         1 UNK         0.0806 
    113 H113       26.5172   31.7615    3.5538 H         1 UNK         0.0806 
    114 H114       26.6800   30.8409    2.0626 H         1 UNK         0.0806 
    115 H115       29.9583   32.6787    4.4091 H         1 UNK         0.3010 
    116 H116       31.0101   34.5735    4.1030 H         1 UNK         0.0829 
    117 H117       28.7928   35.5308    3.4200 H         1 UNK         0.0813 
    118 H118       30.1378   36.3401    2.6359 H         1 UNK         0.0813 
    119 H119       29.1709   35.1886    1.7317 H         1 UNK         0.0813 
    120 H120       31.4755   32.0623    2.1418 H         1 UNK         0.3038 
    121 H121       33.4878   33.3454    0.3527 H         1 UNK         0.0769 
    122 H122       31.8825   31.7817   -0.7257 H         1 UNK         0.0811 
    123 H123       33.5195   31.1471   -0.7823 H         1 UNK         0.0811 
    124 H124       32.3678   30.4922    0.3703 H         1 UNK         0.0811 
    125 H125       33.0951   30.8865    2.9484 H         1 UNK         0.3204 
    126 H126       35.7586   31.3894    3.9471 H         1 UNK         0.0748 
    127 H127       36.4925   29.8358    2.2087 H         1 UNK         0.0771 
    128 H128       36.5389   28.9797    3.7368 H         1 UNK         0.0771 
    129 H129       35.2317   28.6768    2.5992 H         1 UNK         0.0771 
    130 H130       33.8852   28.3807    4.1547 H         1 UNK         0.2980 
    131 H131       33.9648   28.3772    6.9612 H         1 UNK         0.0545 
    132 H132       31.4957   29.9583    5.0087 H         1 UNK         0.3459 
    133 H133       30.4056   30.1911    6.3584 H         1 UNK         0.3459 
    134 H134       32.7454   26.2625    6.8554 H         1 UNK         0.0616 
    135 H135       32.2330   26.5607    5.2166 H         1 UNK         0.0616 
    136 H136       33.9862   24.0860    6.7496 H         1 UNK         0.0634 
    137 H137       35.1298   23.6088    5.5213 H         1 UNK         0.0634 
@<TRIPOS>BOND
     1    1    2 1    
     2    1   72 1    
     3    1   73 1    
     4    1   74 1    
     5    2    3 2    
     6    2    4 am   BACKBONE|DICT|INTERRES
     7    4    5 1    
     8    4   75 1    
     9    5    6 1    
    10    5   35 1    
    11    5   76 1    
    12    6    7 1    
    13    6   77 1    
    14    6   78 1    
    15    7    8 1    
    16    8    9 1    
    17    8   79 1    
    18    8   80 1    
    19    9   10 ar   
    20    9   14 ar   
    21   10   11 ar   
    22   10   81 1    
    23   11   12 ar   
    24   11   71 1    
    25   12   13 ar   
    26   12   82 1    
    27   13   14 ar   
    28   13   15 1    
    29   14   83 1    
    30   15   16 1    
    31   15   84 1    
    32   15   85 1    
    33   16   17 1    
    34   17   18 1    
    35   17   86 1    
    36   17   87 1    
    37   18   19 1    
    38   18   37 1    
    39   18   88 1    
    40   19   20 am   BACKBONE|DICT|INTERRES
    41   19   89 1    
    42   20   21 2    
    43   20   22 1    
    44   22   23 1    
    45   22   24 1    
    46   22   90 1    
    47   23   91 1    
    48   23   92 1    
    49   23   93 1    
    50   24   25 am   BACKBONE|DICT|INTERRES
    51   24   94 1    
    52   25   26 2    
    53   25   27 1    
    54   27   28 1    
    55   27   29 1    
    56   27   95 1    
    57   28   96 1    
    58   28   97 1    
    59   28   98 1    
    60   29   30 am   BACKBONE|DICT|INTERRES
    61   29   99 1    
    62   30   31 2    
    63   30   32 1    
    64   32   33 1    
    65   32   34 1    
    66   32  100 1    
    67   33  101 1    
    68   33  102 1    
    69   33  103 1    
    70   34   35 am   BACKBONE|DICT|INTERRES
    71   34  104 1    
    72   35   36 2    
    73   37   38 2    
    74   37   39 am   BACKBONE|DICT|INTERRES
    75   39   40 1    
    76   39  105 1    
    77   40   41 1    
    78   40   42 1    
    79   40  106 1    
    80   41  107 1    
    81   41  108 1    
    82   41  109 1    
    83   42   43 2    
    84   42   44 am   BACKBONE|DICT|INTERRES
    85   44   45 1    
    86   44  110 1    
    87   45   46 1    
    88   45   47 1    
    89   45  111 1    
    90   46  112 1    
    91   46  113 1    
    92   46  114 1    
    93   47   48 2    
    94   47   49 am   BACKBONE|DICT|INTERRES
    95   49   50 1    
    96   49  115 1    
    97   50   51 1    
    98   50   52 1    
    99   50  116 1    
   100   51  117 1    
   101   51  118 1    
   102   51  119 1    
   103   52   53 2    
   104   52   54 am   BACKBONE|DICT|INTERRES
   105   54   55 1    
   106   54  120 1    
   107   55   56 1    
   108   55   57 1    
   109   55  121 1    
   110   56  122 1    
   111   56  123 1    
   112   56  124 1    
   113   57   58 2    
   114   57   59 am   BACKBONE|DICT|INTERRES
   115   59   60 1    
   116   59  125 1    
   117   60   61 1    
   118   60   62 1    
   119   60  126 1    
   120   61  127 1    
   121   61  128 1    
   122   61  129 1    
   123   62   63 2    
   124   62   64 am   BACKBONE|DICT|INTERRES
   125   64   65 1    
   126   64  130 1    
   127   65   66 1    
   128   65   69 1    
   129   65  131 1    
   130   66   67 am   BACKBONE|DICT|INTERRES
   131   66   68 2    
   132   67  132 1    
   133   67  133 1    
   134   69   70 1    
   135   69  134 1    
   136   69  135 1    
   137   70   71 1    
   138   71  136 1    
   139   71  137 1    
@<TRIPOS>SUBSTRUCTURE
     1 UNK         1 GROUP             0       ****    0 ROOT    
