@<TRIPOS>MOLECULE
3R136
137   139    1
SMALL
USER_CHARGES


@<TRIPOS>ATOM
      1 CA         27.2301   19.9678    5.8331 C.3       0 UNK        -0.1979 
      2 C          27.2289   20.2209    4.3325 C.2       0 UNK         0.4864 
      3 O          26.6453   19.4380    3.5809 O.2       0 UNK        -0.5359 
      4 N          27.8832   21.3030    3.8906 N.am      1 UNK        -0.4318 
      5 CA         27.9294   21.7375    2.4919 C.3       1 UNK         0.0824 
      6 C6         29.0662   22.7632    2.2656 C.3       12 UNK        -0.0944 
      7 S7         29.5735   22.8715    0.5140 S.3       12 UNK        -0.2672 
      8 C8         31.3919   22.9082    0.6544 C.3       12 UNK         0.0333 
      9 C9         31.9142   24.3128    0.9309 C.ar      12 UNK        -0.0807 
     10 C10        31.8166   24.8695    2.2108 C.ar      12 UNK        -0.0894 
     11 C11        32.2744   26.1668    2.4578 C.ar      12 UNK        -0.0804 
     12 C12        32.8725   26.8934    1.4263 C.ar      12 UNK        -0.0824 
     13 C13        32.9926   26.3449    0.1483 C.ar      12 UNK        -0.0762 
     14 C14        32.5048   25.0571   -0.0964 C.ar      12 UNK        -0.0782 
     15 C15        33.6675   27.1369   -0.9611 C.3       12 UNK         0.0230 
     16 S16        32.4766   27.7656   -2.1841 S.3       12 UNK        -0.2608 
     17 C17        31.6445   29.1174   -1.2808 C.3       12 UNK        -0.0989 
     18 CA         30.1025   28.9722   -1.3586 C.3       5 UNK         0.0716 
     19 N          29.5945   27.8072   -0.6224 N.am      5 UNK        -0.4135 
     20 C          29.4212   27.7071    0.7049 C.2       4 UNK         0.5031 
     21 O          29.8209   28.5483    1.5073 O.2       4 UNK        -0.5229 
     22 CA         28.6174   26.4961    1.2240 C.3       4 UNK         0.0329 
     23 CB         27.7512   26.8617    2.4474 C.3       4 UNK        -0.2001 
     24 N          27.7982   25.8111    0.2113 N.am      4 UNK        -0.4303 
     25 C          26.8478   26.3418   -0.5760 C.2       3 UNK         0.5044 
     26 O          26.5403   27.5350   -0.5835 O.2       3 UNK        -0.5152 
     27 CA         26.1691   25.3825   -1.5642 C.3       3 UNK         0.0319 
     28 CB         27.0284   25.2240   -2.8295 C.3       3 UNK        -0.2001 
     29 N          25.9188   24.0645   -0.9766 N.am      3 UNK        -0.4354 
     30 C          24.8678   23.7798   -0.1946 C.2       2 UNK         0.4964 
     31 O          23.9889   24.5897    0.1018 O.2       2 UNK        -0.5047 
     32 CA         24.7853   22.3433    0.3454 C.3       2 UNK         0.0288 
     33 CB         24.3180   21.3702   -0.7504 C.3       2 UNK        -0.2113 
     34 N          26.0592   21.8839    0.9038 N.am      2 UNK        -0.4145 
     35 C          26.5620   22.3121    2.0700 C.2       1 UNK         0.5006 
     36 O          26.0011   23.1334    2.8004 O.2       1 UNK        -0.5103 
     37 C          29.3250   30.2678   -1.0127 C.2       5 UNK         0.5055 
     38 O          29.9216   31.3392   -0.8987 O.2       5 UNK        -0.5220 
     39 N          27.9982   30.1281   -0.8507 N.am      6 UNK        -0.4450 
     40 CA         26.9872   31.1494   -0.5497 C.3       6 UNK         0.0367 
     41 CB         27.0049   32.2929   -1.5854 C.3       6 UNK        -0.1929 
     42 C          26.9920   31.6939    0.8924 C.2       6 UNK         0.5070 
     43 O          26.0023   32.3190    1.2770 O.2       6 UNK        -0.5237 
     44 N          28.0449   31.4485    1.6814 N.am      7 UNK        -0.4739 
     45 CA         28.1490   31.8601    3.0802 C.3       7 UNK         0.0276 
     46 CB         28.4483   33.3689    3.1860 C.3       7 UNK        -0.1927 
     47 C          29.2572   31.0490    3.7522 C.2       7 UNK         0.5013 
     48 O          30.3772   31.0286    3.2402 O.2       7 UNK        -0.5193 
     49 N          28.9525   30.4524    4.9147 N.am      8 UNK        -0.4253 
     50 CA         29.8550   29.5936    5.6969 C.3       8 UNK         0.0242 
     51 CB         29.1170   29.0722    6.9394 C.3       8 UNK        -0.2000 
     52 C          31.1918   30.2445    6.0992 C.2       8 UNK         0.4948 
     53 O          32.1757   29.5302    6.2923 O.2       8 UNK        -0.5275 
     54 N          31.2333   31.5841    6.1473 N.am      9 UNK        -0.4246 
     55 CA         32.4419   32.4002    6.3065 C.3       9 UNK         0.0261 
     56 CB         32.0412   33.8842    6.3376 C.3       9 UNK        -0.1959 
     57 C          33.5227   32.1575    5.2310 C.2       9 UNK         0.5033 
     58 O          34.6882   32.4682    5.4798 O.2       9 UNK        -0.5390 
     59 N          33.1406   31.5838    4.0791 N.am      10 UNK        -0.4215 
     60 CA         34.0495   31.1197    3.0302 C.3       10 UNK         0.0240 
     61 CB         33.2378   30.8296    1.7572 C.3       10 UNK        -0.1982 
     62 C          34.9020   29.8944    3.4233 C.2       10 UNK         0.4970 
     63 O          35.8688   29.6134    2.7134 O.2       10 UNK        -0.4916 
     64 N          34.5590   29.1917    4.5137 N.am      11 UNK        -0.4279 
     65 CA         35.3346   28.0588    5.0449 C.3       11 UNK         0.1003 
     66 C          35.4903   28.0561    6.5913 C.2       11 UNK         0.5709 
     67 N          34.6348   28.7231    7.3559 N.am      11 UNK        -0.7358 
     68 O          36.4311   27.4577    7.1084 O.2       11 UNK        -0.4999 
     69 C69        34.8614   26.6944    4.4741 C.3       12 UNK        -0.0954 
     70 S70        33.2276   26.1328    5.0737 S.3       12 UNK        -0.2268 
     71 C71        32.0863   26.8027    3.8262 C.3       12 UNK         0.0203 
     72 H72        26.2090   19.9663    6.2137 H         1 UNK         0.0888 
     73 H73        27.6765   18.9977    6.0497 H         1 UNK         0.0888 
     74 H74        27.7926   20.7281    6.3747 H         1 UNK         0.0888 
     75 H75        28.3123   21.9270    4.5586 H         1 UNK         0.3017 
     76 H76        28.1411   20.8506    1.8897 H         1 UNK         0.0873 
     77 H77        28.7924   23.7534    2.6340 H         1 UNK         0.0745 
     78 H78        29.9348   22.4606    2.8514 H         1 UNK         0.0745 
     79 H79        31.7304   22.2206    1.4305 H         1 UNK         0.0705 
     80 H80        31.8125   22.5309   -0.2789 H         1 UNK         0.0705 
     81 H81        31.3649   24.3062    3.0145 H         1 UNK         0.1334 
     82 H82        33.2402   27.8904    1.6186 H         1 UNK         0.1417 
     83 H83        32.5900   24.6360   -1.0891 H         1 UNK         0.1562 
     84 H84        34.3855   26.4934   -1.4714 H         1 UNK         0.0748 
     85 H85        34.2439   27.9698   -0.5544 H         1 UNK         0.0748 
     86 H86        31.9776   30.0533   -1.7329 H         1 UNK         0.0940 
     87 H87        31.9709   29.1466   -0.2418 H         1 UNK         0.0940 
     88 H88        29.8505   28.7871   -2.4041 H         1 UNK         0.0703 
     89 H89        29.2547   27.0483   -1.1931 H         1 UNK         0.3081 
     90 H90        29.3602   25.7729    1.5512 H         1 UNK         0.0719 
     91 H91        28.3648   27.2408    3.2660 H         1 UNK         0.0809 
     92 H92        27.0197   27.6333    2.2047 H         1 UNK         0.0809 
     93 H93        27.2113   25.9930    2.8247 H         1 UNK         0.0809 
     94 H94        27.9955   24.8253    0.1037 H         1 UNK         0.2990 
     95 H95        25.2160   25.8278   -1.8588 H         1 UNK         0.0690 
     96 H96        27.9954   24.7677   -2.6133 H         1 UNK         0.0788 
     97 H97        27.2198   26.1918   -3.2954 H         1 UNK         0.0788 
     98 H98        26.5255   24.6045   -3.5724 H         1 UNK         0.0788 
     99 H99        26.5845   23.3331   -1.1798 H         1 UNK         0.2993 
    100 H100       24.0392   22.3340    1.1437 H         1 UNK         0.0949 
    101 H101       23.3645   21.6896   -1.1736 H         1 UNK         0.0767 
    102 H102       25.0331   21.3041   -1.5713 H         1 UNK         0.0767 
    103 H103       24.1725   20.3661   -0.3511 H         1 UNK         0.0767 
    104 H104       26.5774   21.2036    0.3663 H         1 UNK         0.3013 
    105 H105       27.6204   29.1845   -0.8936 H         1 UNK         0.3121 
    106 H106       26.0322   30.6329   -0.6604 H         1 UNK         0.0774 
    107 H107       27.9034   32.9047   -1.5032 H         1 UNK         0.0815 
    108 H108       26.1519   32.9577   -1.4436 H         1 UNK         0.0815 
    109 H109       26.9491   31.9091   -2.6040 H         1 UNK         0.0815 
    110 H110       28.8324   30.9160    1.3261 H         1 UNK         0.2987 
    111 H111       27.2008   31.6478    3.5793 H         1 UNK         0.0949 
    112 H112       29.3672   33.6324    2.6604 H         1 UNK         0.0806 
    113 H113       27.6409   33.9697    2.7676 H         1 UNK         0.0806 
    114 H114       28.5680   33.6729    4.2266 H         1 UNK         0.0806 
    115 H115       28.0129   30.5489    5.2727 H         1 UNK         0.3010 
    116 H116       30.1014   28.7389    5.0645 H         1 UNK         0.0829 
    117 H117       29.7572   28.4089    7.5233 H         1 UNK         0.0813 
    118 H118       28.8059   29.8859    7.5957 H         1 UNK         0.0813 
    119 H119       28.2298   28.5011    6.6650 H         1 UNK         0.0813 
    120 H120       30.3743   32.0835    5.9707 H         1 UNK         0.3038 
    121 H121       32.8849   32.1412    7.2704 H         1 UNK         0.0769 
    122 H122       31.5658   34.1929    5.4056 H         1 UNK         0.0811 
    123 H123       32.9144   34.5216    6.4845 H         1 UNK         0.0811 
    124 H124       31.3503   34.0933    7.1545 H         1 UNK         0.0811 
    125 H125       32.1528   31.3864    3.9292 H         1 UNK         0.3204 
    126 H126       34.7450   31.9317    2.8085 H         1 UNK         0.0748 
    127 H127       33.8804   30.4851    0.9458 H         1 UNK         0.0771 
    128 H128       32.4833   30.0619    1.9314 H         1 UNK         0.0771 
    129 H129       32.7209   31.7222    1.4040 H         1 UNK         0.0771 
    130 H130       33.7458   29.4622    5.0557 H         1 UNK         0.2980 
    131 H131       36.3623   28.1859    4.6988 H         1 UNK         0.0545 
    132 H132       34.7708   28.7165    8.3535 H         1 UNK         0.3459 
    133 H133       33.7781   29.1127    6.9703 H         1 UNK         0.3459 
    134 H134       34.8650   26.7250    3.3849 H         1 UNK         0.0616 
    135 H135       35.5841   25.9207    4.7379 H         1 UNK         0.0616 
    136 H136       32.1989   27.8863    3.7702 H         1 UNK         0.0634 
    137 H137       31.0634   26.6248    4.1603 H         1 UNK         0.0634 
@<TRIPOS>BOND
     1    1    2 1    
     2    1   72 1    
     3    1   73 1    
     4    1   74 1    
     5    2    3 2    
     6    2    4 am   BACKBONE|DICT|INTERRES
     7    4    5 1    
     8    4   75 1    
     9    5    6 1    
    10    5   35 1    
    11    5   76 1    
    12    6    7 1    
    13    6   77 1    
    14    6   78 1    
    15    7    8 1    
    16    8    9 1    
    17    8   79 1    
    18    8   80 1    
    19    9   10 ar   
    20    9   14 ar   
    21   10   11 ar   
    22   10   81 1    
    23   11   12 ar   
    24   11   71 1    
    25   12   13 ar   
    26   12   82 1    
    27   13   14 ar   
    28   13   15 1    
    29   14   83 1    
    30   15   16 1    
    31   15   84 1    
    32   15   85 1    
    33   16   17 1    
    34   17   18 1    
    35   17   86 1    
    36   17   87 1    
    37   18   19 1    
    38   18   37 1    
    39   18   88 1    
    40   19   20 am   BACKBONE|DICT|INTERRES
    41   19   89 1    
    42   20   21 2    
    43   20   22 1    
    44   22   23 1    
    45   22   24 1    
    46   22   90 1    
    47   23   91 1    
    48   23   92 1    
    49   23   93 1    
    50   24   25 am   BACKBONE|DICT|INTERRES
    51   24   94 1    
    52   25   26 2    
    53   25   27 1    
    54   27   28 1    
    55   27   29 1    
    56   27   95 1    
    57   28   96 1    
    58   28   97 1    
    59   28   98 1    
    60   29   30 am   BACKBONE|DICT|INTERRES
    61   29   99 1    
    62   30   31 2    
    63   30   32 1    
    64   32   33 1    
    65   32   34 1    
    66   32  100 1    
    67   33  101 1    
    68   33  102 1    
    69   33  103 1    
    70   34   35 am   BACKBONE|DICT|INTERRES
    71   34  104 1    
    72   35   36 2    
    73   37   38 2    
    74   37   39 am   BACKBONE|DICT|INTERRES
    75   39   40 1    
    76   39  105 1    
    77   40   41 1    
    78   40   42 1    
    79   40  106 1    
    80   41  107 1    
    81   41  108 1    
    82   41  109 1    
    83   42   43 2    
    84   42   44 am   BACKBONE|DICT|INTERRES
    85   44   45 1    
    86   44  110 1    
    87   45   46 1    
    88   45   47 1    
    89   45  111 1    
    90   46  112 1    
    91   46  113 1    
    92   46  114 1    
    93   47   48 2    
    94   47   49 am   BACKBONE|DICT|INTERRES
    95   49   50 1    
    96   49  115 1    
    97   50   51 1    
    98   50   52 1    
    99   50  116 1    
   100   51  117 1    
   101   51  118 1    
   102   51  119 1    
   103   52   53 2    
   104   52   54 am   BACKBONE|DICT|INTERRES
   105   54   55 1    
   106   54  120 1    
   107   55   56 1    
   108   55   57 1    
   109   55  121 1    
   110   56  122 1    
   111   56  123 1    
   112   56  124 1    
   113   57   58 2    
   114   57   59 am   BACKBONE|DICT|INTERRES
   115   59   60 1    
   116   59  125 1    
   117   60   61 1    
   118   60   62 1    
   119   60  126 1    
   120   61  127 1    
   121   61  128 1    
   122   61  129 1    
   123   62   63 2    
   124   62   64 am   BACKBONE|DICT|INTERRES
   125   64   65 1    
   126   64  130 1    
   127   65   66 1    
   128   65   69 1    
   129   65  131 1    
   130   66   67 am   BACKBONE|DICT|INTERRES
   131   66   68 2    
   132   67  132 1    
   133   67  133 1    
   134   69   70 1    
   135   69  134 1    
   136   69  135 1    
   137   70   71 1    
   138   71  136 1    
   139   71  137 1    
@<TRIPOS>SUBSTRUCTURE
     1 UNK         1 GROUP             0       ****    0 ROOT    
