@<TRIPOS>MOLECULE
3R136
137   139    1
SMALL
USER_CHARGES


@<TRIPOS>ATOM
      1 CA         26.3247   19.1010    1.8581 C.3       0 UNK        -0.1979 
      2 C          27.6034   19.6834    1.2738 C.2       0 UNK         0.4864 
      3 O          28.6960   19.2359    1.6259 O.2       0 UNK        -0.5359 
      4 N          27.4744   20.6702    0.3823 N.am      1 UNK        -0.4318 
      5 CA         28.5704   21.3471   -0.3089 C.3       1 UNK         0.0824 
      6 C6         29.3338   22.3510    0.6034 C.3       12 UNK        -0.0944 
      7 S7         28.3376   23.7877    1.1324 S.3       12 UNK        -0.2672 
      8 C8         29.5639   25.1317    1.0408 C.3       12 UNK         0.0333 
      9 C9         30.5730   25.0822    2.1811 C.ar      12 UNK        -0.0807 
     10 C10        31.9432   25.1357    1.9097 C.ar      12 UNK        -0.0894 
     11 C11        32.8751   25.1374    2.9523 C.ar      12 UNK        -0.0804 
     12 C12        32.4273   25.0849    4.2752 C.ar      12 UNK        -0.0824 
     13 C13        31.0596   25.0419    4.5626 C.ar      12 UNK        -0.0762 
     14 C14        30.1403   25.0285    3.5104 C.ar      12 UNK        -0.0782 
     15 C15        30.5803   25.0002    6.0079 C.3       12 UNK         0.0230 
     16 S16        30.1429   26.6569    6.6359 S.3       12 UNK        -0.2608 
     17 C17        28.4410   26.8810    6.0150 C.3       12 UNK        -0.0989 
     18 CA         28.3722   27.7312    4.7183 C.3       5 UNK         0.0716 
     19 N          27.2821   27.2738    3.8418 N.am      5 UNK        -0.4135 
     20 C          27.1203   27.6601    2.5714 C.2       4 UNK         0.5031 
     21 O          27.8239   28.5105    2.0211 O.2       4 UNK        -0.5229 
     22 CA         25.9758   27.0210    1.7813 C.3       4 UNK         0.0329 
     23 CB         24.6618   27.7908    1.9962 C.3       4 UNK        -0.2001 
     24 N          26.3544   27.0740    0.3746 N.am      4 UNK        -0.4303 
     25 C          26.0784   26.1598   -0.5588 C.2       3 UNK         0.5044 
     26 O          25.3386   25.1924   -0.3739 O.2       3 UNK        -0.5152 
     27 CA         26.7543   26.3369   -1.9276 C.3       3 UNK         0.0319 
     28 CB         27.6908   27.5634   -2.0331 C.3       3 UNK        -0.2001 
     29 N          27.5009   25.1197   -2.2392 N.am      3 UNK        -0.4354 
     30 C          27.6896   24.6228   -3.4680 C.2       2 UNK         0.4964 
     31 O          27.2348   25.1456   -4.4868 O.2       2 UNK        -0.5047 
     32 CA         28.5463   23.3467   -3.6124 C.3       2 UNK         0.0288 
     33 CB         29.8564   23.6623   -4.3556 C.3       2 UNK        -0.2113 
     34 N          28.8781   22.6806   -2.3478 N.am      2 UNK        -0.4145 
     35 C          28.0174   21.9686   -1.6081 C.2       1 UNK         0.5006 
     36 O          26.8329   21.8022   -1.9159 O.2       1 UNK        -0.5103 
     37 C          28.3346   29.2503    5.0083 C.2       5 UNK         0.5055 
     38 O          29.3846   29.8567    5.2198 O.2       5 UNK        -0.5220 
     39 N          27.1328   29.8460    4.9768 N.am      6 UNK        -0.4450 
     40 CA         26.9241   31.2922    5.0825 C.3       6 UNK         0.0367 
     41 CB         25.4459   31.5693    5.4009 C.3       6 UNK        -0.1929 
     42 C          27.3523   32.0583    3.8163 C.2       6 UNK         0.5070 
     43 O          27.7525   33.2174    3.9252 O.2       6 UNK        -0.5237 
     44 N          27.2548   31.4126    2.6450 N.am      7 UNK        -0.4739 
     45 CA         27.6877   31.9642    1.3596 C.3       7 UNK         0.0276 
     46 CB         26.8775   31.3276    0.2176 C.3       7 UNK        -0.1927 
     47 C          29.1935   31.7497    1.1571 C.2       7 UNK         0.5013 
     48 O          29.9042   32.6925    0.8063 O.2       7 UNK        -0.5193 
     49 N          29.6671   30.5283    1.4371 N.am      8 UNK        -0.4253 
     50 CA         31.0733   30.1216    1.4150 C.3       8 UNK         0.0242 
     51 CB         31.1413   28.5927    1.2411 C.3       8 UNK        -0.2000 
     52 C          31.8252   30.5996    2.6728 C.2       8 UNK         0.4948 
     53 O          32.4914   29.8033    3.3343 O.2       8 UNK        -0.5275 
     54 N          31.7245   31.9002    2.9796 N.am      9 UNK        -0.4246 
     55 CA         32.2274   32.5510    4.1971 C.3       9 UNK         0.0261 
     56 CB         31.7965   34.0267    4.1832 C.3       9 UNK        -0.1959 
     57 C          33.7455   32.4291    4.4389 C.2       9 UNK         0.5033 
     58 O          34.1937   32.6490    5.5651 O.2       9 UNK        -0.5390 
     59 N          34.5055   32.0657    3.3973 N.am      10 UNK        -0.4215 
     60 CA         35.9268   31.7259    3.4640 C.3       10 UNK         0.0240 
     61 CB         36.4891   31.6525    2.0345 C.3       10 UNK        -0.1982 
     62 C          36.2210   30.4151    4.2221 C.2       10 UNK         0.4970 
     63 O          37.3558   30.2436    4.6704 O.2       10 UNK        -0.4916 
     64 N          35.2303   29.5213    4.3506 N.am      11 UNK        -0.4279 
     65 CA         35.3655   28.2230    5.0301 C.3       11 UNK         0.1003 
     66 C          34.1185   27.7753    5.8384 C.2       11 UNK         0.5709 
     67 N          32.9374   28.3381    5.6287 N.am      11 UNK        -0.7358 
     68 O          34.2361   26.9114    6.7045 O.2       11 UNK        -0.4999 
     69 C69        35.9095   27.1102    4.0914 C.3       12 UNK        -0.0954 
     70 S70        34.9705   26.9020    2.5338 S.3       12 UNK        -0.2268 
     71 C71        34.3633   25.1876    2.6422 C.3       12 UNK         0.0203 
     72 H72        25.4358   19.5916    1.4617 H         1 UNK         0.0888 
     73 H73        26.2566   18.0380    1.6282 H         1 UNK         0.0888 
     74 H74        26.3208   19.2173    2.9415 H         1 UNK         0.0888 
     75 H75        26.5587   20.9724    0.0718 H         1 UNK         0.3017 
     76 H76        29.2774   20.5780   -0.6280 H         1 UNK         0.0873 
     77 H77        29.6882   21.8437    1.5019 H         1 UNK         0.0745 
     78 H78        30.2387   22.6985    0.1032 H         1 UNK         0.0745 
     79 H79        30.0613   25.1029    0.0702 H         1 UNK         0.0705 
     80 H80        29.0453   26.0882    1.0824 H         1 UNK         0.0705 
     81 H81        32.2886   25.1884    0.8863 H         1 UNK         0.1334 
     82 H82        33.1453   25.0856    5.0832 H         1 UNK         0.1417 
     83 H83        29.0820   24.9880    3.7249 H         1 UNK         0.1562 
     84 H84        31.3677   24.5920    6.6435 H         1 UNK         0.0748 
     85 H85        29.7342   24.3192    6.1092 H         1 UNK         0.0748 
     86 H86        27.8328   27.3193    6.8091 H         1 UNK         0.0940 
     87 H87        28.0153   25.8903    5.8507 H         1 UNK         0.0940 
     88 H88        29.2925   27.5684    4.1534 H         1 UNK         0.0703 
     89 H89        26.6440   26.5938    4.2298 H         1 UNK         0.3081 
     90 H90        25.8623   25.9818    2.0983 H         1 UNK         0.0719 
     91 H91        24.7543   28.8379    1.7039 H         1 UNK         0.0809 
     92 H92        23.8506   27.3538    1.4136 H         1 UNK         0.0809 
     93 H93        24.3564   27.7665    3.0429 H         1 UNK         0.0809 
     94 H94        27.0167   27.8097    0.1634 H         1 UNK         0.2990 
     95 H95        25.9443   26.4597   -2.6497 H         1 UNK         0.0690 
     96 H96        28.1096   27.6486   -3.0360 H         1 UNK         0.0788 
     97 H97        28.5271   27.5022   -1.3352 H         1 UNK         0.0788 
     98 H98        27.1542   28.4931   -1.8394 H         1 UNK         0.0788 
     99 H99        27.8331   24.5918   -1.4437 H         1 UNK         0.2993 
    100 H100       27.9695   22.6480   -4.2227 H         1 UNK         0.0949 
    101 H101       29.6572   24.1161   -5.3276 H         1 UNK         0.0767 
    102 H102       30.4812   24.3582   -3.7939 H         1 UNK         0.0767 
    103 H103       30.4380   22.7583   -4.5382 H         1 UNK         0.0767 
    104 H104       29.8340   22.7690   -2.0348 H         1 UNK         0.3013 
    105 H105       26.3156   29.2757    4.8170 H         1 UNK         0.3121 
    106 H106       27.5274   31.6660    5.9129 H         1 UNK         0.0774 
    107 H107       25.2663   32.6396    5.5119 H         1 UNK         0.0815 
    108 H108       24.7862   31.2095    4.6102 H         1 UNK         0.0815 
    109 H109       25.1443   31.0941    6.3345 H         1 UNK         0.0815 
    110 H110       26.9849   30.4384    2.6485 H         1 UNK         0.2987 
    111 H111       27.4973   33.0400    1.3474 H         1 UNK         0.0949 
    112 H112       27.0219   30.2490    0.1621 H         1 UNK         0.0806 
    113 H113       25.8105   31.5155    0.3379 H         1 UNK         0.0806 
    114 H114       27.1725   31.7443   -0.7463 H         1 UNK         0.0806 
    115 H115       29.0029   29.8130    1.7299 H         1 UNK         0.3010 
    116 H116       31.5587   30.5809    0.5515 H         1 UNK         0.0829 
    117 H117       30.6221   28.2691    0.3393 H         1 UNK         0.0813 
    118 H118       32.1742   28.2503    1.1630 H         1 UNK         0.0813 
    119 H119       30.6932   28.0750    2.0903 H         1 UNK         0.0813 
    120 H120       31.1676   32.4738    2.3537 H         1 UNK         0.3038 
    121 H121       31.7365   32.0608    5.0407 H         1 UNK         0.0769 
    122 H122       32.2253   34.5633    3.3360 H         1 UNK         0.0811 
    123 H123       32.1185   34.5382    5.0915 H         1 UNK         0.0811 
    124 H124       30.7114   34.1218    4.1281 H         1 UNK         0.0811 
    125 H125       34.0416   31.9089    2.5149 H         1 UNK         0.3204 
    126 H126       36.4402   32.5309    3.9940 H         1 UNK         0.0748 
    127 H127       36.3565   32.5965    1.5055 H         1 UNK         0.0771 
    128 H128       37.5588   31.4378    2.0463 H         1 UNK         0.0771 
    129 H129       36.0064   30.8671    1.4511 H         1 UNK         0.0771 
    130 H130       34.3168   29.7150    3.9512 H         1 UNK         0.2980 
    131 H131       36.1179   28.3548    5.8102 H         1 UNK         0.0545 
    132 H132       32.1458   28.0126    6.1615 H         1 UNK         0.3459 
    133 H133       32.7796   28.9603    4.8386 H         1 UNK         0.3459 
    134 H134       35.9815   26.1616    4.6250 H         1 UNK         0.0616 
    135 H135       36.9346   27.3559    3.8106 H         1 UNK         0.0616 
    136 H136       34.5535   24.6968    1.6865 H         1 UNK         0.0634 
    137 H137       34.9254   24.6178    3.3827 H         1 UNK         0.0634 
@<TRIPOS>BOND
     1    1    2 1    
     2    1   72 1    
     3    1   73 1    
     4    1   74 1    
     5    2    3 2    
     6    2    4 am   BACKBONE|DICT|INTERRES
     7    4    5 1    
     8    4   75 1    
     9    5    6 1    
    10    5   35 1    
    11    5   76 1    
    12    6    7 1    
    13    6   77 1    
    14    6   78 1    
    15    7    8 1    
    16    8    9 1    
    17    8   79 1    
    18    8   80 1    
    19    9   10 ar   
    20    9   14 ar   
    21   10   11 ar   
    22   10   81 1    
    23   11   12 ar   
    24   11   71 1    
    25   12   13 ar   
    26   12   82 1    
    27   13   14 ar   
    28   13   15 1    
    29   14   83 1    
    30   15   16 1    
    31   15   84 1    
    32   15   85 1    
    33   16   17 1    
    34   17   18 1    
    35   17   86 1    
    36   17   87 1    
    37   18   19 1    
    38   18   37 1    
    39   18   88 1    
    40   19   20 am   BACKBONE|DICT|INTERRES
    41   19   89 1    
    42   20   21 2    
    43   20   22 1    
    44   22   23 1    
    45   22   24 1    
    46   22   90 1    
    47   23   91 1    
    48   23   92 1    
    49   23   93 1    
    50   24   25 am   BACKBONE|DICT|INTERRES
    51   24   94 1    
    52   25   26 2    
    53   25   27 1    
    54   27   28 1    
    55   27   29 1    
    56   27   95 1    
    57   28   96 1    
    58   28   97 1    
    59   28   98 1    
    60   29   30 am   BACKBONE|DICT|INTERRES
    61   29   99 1    
    62   30   31 2    
    63   30   32 1    
    64   32   33 1    
    65   32   34 1    
    66   32  100 1    
    67   33  101 1    
    68   33  102 1    
    69   33  103 1    
    70   34   35 am   BACKBONE|DICT|INTERRES
    71   34  104 1    
    72   35   36 2    
    73   37   38 2    
    74   37   39 am   BACKBONE|DICT|INTERRES
    75   39   40 1    
    76   39  105 1    
    77   40   41 1    
    78   40   42 1    
    79   40  106 1    
    80   41  107 1    
    81   41  108 1    
    82   41  109 1    
    83   42   43 2    
    84   42   44 am   BACKBONE|DICT|INTERRES
    85   44   45 1    
    86   44  110 1    
    87   45   46 1    
    88   45   47 1    
    89   45  111 1    
    90   46  112 1    
    91   46  113 1    
    92   46  114 1    
    93   47   48 2    
    94   47   49 am   BACKBONE|DICT|INTERRES
    95   49   50 1    
    96   49  115 1    
    97   50   51 1    
    98   50   52 1    
    99   50  116 1    
   100   51  117 1    
   101   51  118 1    
   102   51  119 1    
   103   52   53 2    
   104   52   54 am   BACKBONE|DICT|INTERRES
   105   54   55 1    
   106   54  120 1    
   107   55   56 1    
   108   55   57 1    
   109   55  121 1    
   110   56  122 1    
   111   56  123 1    
   112   56  124 1    
   113   57   58 2    
   114   57   59 am   BACKBONE|DICT|INTERRES
   115   59   60 1    
   116   59  125 1    
   117   60   61 1    
   118   60   62 1    
   119   60  126 1    
   120   61  127 1    
   121   61  128 1    
   122   61  129 1    
   123   62   63 2    
   124   62   64 am   BACKBONE|DICT|INTERRES
   125   64   65 1    
   126   64  130 1    
   127   65   66 1    
   128   65   69 1    
   129   65  131 1    
   130   66   67 am   BACKBONE|DICT|INTERRES
   131   66   68 2    
   132   67  132 1    
   133   67  133 1    
   134   69   70 1    
   135   69  134 1    
   136   69  135 1    
   137   70   71 1    
   138   71  136 1    
   139   71  137 1    
@<TRIPOS>SUBSTRUCTURE
     1 UNK         1 GROUP             0       ****    0 ROOT    
