@<TRIPOS>MOLECULE
3R136
137   139    1
SMALL
USER_CHARGES


@<TRIPOS>ATOM
      1 CA         33.3358   25.3479   -1.4441 C.3       0 UNK        -0.1979 
      2 C          31.9777   24.9636   -0.8783 C.2       0 UNK         0.4864 
      3 O          31.2567   25.8266   -0.3767 O.2       0 UNK        -0.5359 
      4 N          31.6087   23.6792   -0.9689 N.am      1 UNK        -0.4318 
      5 CA         30.3876   23.0876   -0.4006 C.3       1 UNK         0.0824 
      6 C6         30.5380   21.5583   -0.1596 C.3       12 UNK        -0.0944 
      7 S7         32.1123   21.0673    0.6326 S.3       12 UNK        -0.2672 
      8 C8         31.6799   20.9934    2.4002 C.3       12 UNK         0.0333 
      9 C9         31.5899   22.3784    3.0253 C.ar      12 UNK        -0.0807 
     10 C10        32.7452   23.1502    3.1960 C.ar      12 UNK        -0.0894 
     11 C11        32.6691   24.4247    3.7663 C.ar      12 UNK        -0.0804 
     12 C12        31.4299   24.9229    4.1736 C.ar      12 UNK        -0.0824 
     13 C13        30.2709   24.1594    4.0133 C.ar      12 UNK        -0.0762 
     14 C14        30.3560   22.8852    3.4441 C.ar      12 UNK        -0.0782 
     15 C15        28.9238   24.7340    4.4237 C.3       12 UNK         0.0230 
     16 S16        27.8412   25.0270    2.9889 S.3       12 UNK        -0.2608 
     17 C17        28.8917   26.0506    1.8923 C.3       12 UNK        -0.0989 
     18 CA         28.5068   27.5418    1.8326 C.3       5 UNK         0.0716 
     19 N          27.1048   27.7367    1.4336 N.am      5 UNK        -0.4135 
     20 C          26.4790   28.9135    1.2804 C.2       4 UNK         0.5031 
     21 O          27.0059   29.9967    1.5407 O.2       4 UNK        -0.5229 
     22 CA         25.0386   28.8785    0.7418 C.3       4 UNK         0.0329 
     23 CB         24.5957   30.2360    0.1629 C.3       4 UNK        -0.2001 
     24 N          24.9001   27.8472   -0.2880 N.am      4 UNK        -0.4303 
     25 C          23.9976   26.8572   -0.2853 C.2       3 UNK         0.5044 
     26 O          23.1251   26.7264    0.5739 O.2       3 UNK        -0.5152 
     27 CA         24.0821   25.8240   -1.4293 C.3       3 UNK         0.0319 
     28 CB         23.0415   26.1438   -2.5150 C.3       3 UNK        -0.2001 
     29 N          25.4070   25.7035   -2.0547 N.am      3 UNK        -0.4354 
     30 C          26.5235   25.3214   -1.4187 C.2       2 UNK         0.4964 
     31 O          26.5536   25.0474   -0.2186 O.2       2 UNK        -0.5047 
     32 CA         27.8169   25.3173   -2.2559 C.3       2 UNK         0.0288 
     33 CB         28.2077   26.7553   -2.6457 C.3       2 UNK        -0.2113 
     34 N          28.9515   24.7225   -1.5478 N.am      2 UNK        -0.4145 
     35 C          29.1222   23.4327   -1.2316 C.2       1 UNK         0.5006 
     36 O          28.3491   22.5415   -1.5909 O.2       1 UNK        -0.5103 
     37 C          28.9406   28.2683    3.1206 C.2       5 UNK         0.5055 
     38 O          30.0903   28.7046    3.2029 O.2       5 UNK        -0.5220 
     39 N          28.0165   28.4262    4.0777 N.am      6 UNK        -0.4450 
     40 CA         28.2176   29.1666    5.3262 C.3       6 UNK         0.0367 
     41 CB         26.9848   28.9794    6.2245 C.3       6 UNK        -0.1929 
     42 C          28.5178   30.6658    5.1278 C.2       6 UNK         0.5070 
     43 O          29.1070   31.2741    6.0206 O.2       6 UNK        -0.5237 
     44 N          28.1219   31.2264    3.9772 N.am      7 UNK        -0.4739 
     45 CA         28.4367   32.5917    3.5589 C.3       7 UNK         0.0276 
     46 CB         27.1350   33.3138    3.1728 C.3       7 UNK        -0.1927 
     47 C          29.4211   32.5971    2.3795 C.2       7 UNK         0.5013 
     48 O          30.3331   33.4239    2.3649 O.2       7 UNK        -0.5193 
     49 N          29.2141   31.6968    1.4063 N.am      8 UNK        -0.4253 
     50 CA         29.9720   31.6329    0.1541 C.3       8 UNK         0.0242 
     51 CB         29.2238   30.7467   -0.8561 C.3       8 UNK        -0.2000 
     52 C          31.4243   31.1564    0.3206 C.2       8 UNK         0.4948 
     53 O          32.2934   31.6496   -0.4001 O.2       8 UNK        -0.5275 
     54 N          31.6622   30.2176    1.2459 N.am      9 UNK        -0.4246 
     55 CA         32.9900   29.6917    1.5704 C.3       9 UNK         0.0261 
     56 CB         33.0053   28.1627    1.4095 C.3       9 UNK        -0.1959 
     57 C          33.3970   30.1126    2.9866 C.2       9 UNK         0.5033 
     58 O          34.4930   30.6476    3.1574 O.2       9 UNK        -0.5390 
     59 N          32.4992   29.8917    3.9611 N.am      10 UNK        -0.4215 
     60 CA         32.5970   30.3019    5.3686 C.3       10 UNK         0.0240 
     61 CB         32.4361   31.8334    5.4811 C.3       10 UNK        -0.1982 
     62 C          33.8619   29.7824    6.0863 C.2       10 UNK         0.4970 
     63 O          34.4879   30.5278    6.8435 O.2       10 UNK        -0.4916 
     64 N          34.2265   28.5203    5.8222 N.am      11 UNK        -0.4279 
     65 CA         35.3866   27.8429    6.4216 C.3       11 UNK         0.1003 
     66 C          35.2556   27.6070    7.9553 C.2       11 UNK         0.5709 
     67 N          36.3713   27.4221    8.6488 N.am      11 UNK        -0.7358 
     68 O          34.1617   27.5654    8.5170 O.2       11 UNK        -0.4999 
     69 C69        35.7622   26.5496    5.6466 C.3       12 UNK        -0.0954 
     70 S70        34.4738   25.2555    5.6692 S.3       12 UNK        -0.2268 
     71 C71        33.9152   25.2764    3.9410 C.3       12 UNK         0.0203 
     72 H72        33.8327   24.5031   -1.9204 H         1 UNK         0.0888 
     73 H73        33.2230   26.1387   -2.1851 H         1 UNK         0.0888 
     74 H74        33.9805   25.7164   -0.6467 H         1 UNK         0.0888 
     75 H75        32.2353   23.0178   -1.4048 H         1 UNK         0.3017 
     76 H76        30.2354   23.5456    0.5790 H         1 UNK         0.0873 
     77 H77        29.7043   21.1856    0.4383 H         1 UNK         0.0745 
     78 H78        30.4881   21.0221   -1.1093 H         1 UNK         0.0745 
     79 H79        32.4481   20.4217    2.9227 H         1 UNK         0.0705 
     80 H80        30.7493   20.4384    2.5284 H         1 UNK         0.0705 
     81 H81        33.7014   22.7588    2.8762 H         1 UNK         0.1334 
     82 H82        31.3690   25.9119    4.6074 H         1 UNK         0.1417 
     83 H83        29.4562   22.2994    3.3124 H         1 UNK         0.1562 
     84 H84        29.0477   25.6694    4.9717 H         1 UNK         0.0748 
     85 H85        28.4289   24.0423    5.1067 H         1 UNK         0.0748 
     86 H86        28.8011   25.6312    0.8958 H         1 UNK         0.0940 
     87 H87        29.9501   25.9427    2.1281 H         1 UNK         0.0940 
     88 H88        29.1045   27.9835    1.0339 H         1 UNK         0.0703 
     89 H89        26.6032   26.8874    1.2021 H         1 UNK         0.3081 
     90 H90        24.4006   28.6503    1.5978 H         1 UNK         0.0719 
     91 H91        25.2351   30.5493   -0.6633 H         1 UNK         0.0809 
     92 H92        23.5699   30.1940   -0.2034 H         1 UNK         0.0809 
     93 H93        24.6347   31.0189    0.9217 H         1 UNK         0.0809 
     94 H94        25.5790   27.8673   -1.0356 H         1 UNK         0.2990 
     95 H95        23.8361   24.8511   -0.9985 H         1 UNK         0.0690 
     96 H96        23.2493   27.0956   -3.0057 H         1 UNK         0.0788 
     97 H97        22.0393   26.2094   -2.0886 H         1 UNK         0.0788 
     98 H98        23.0140   25.3683   -3.2807 H         1 UNK         0.0788 
     99 H99        25.4603   25.9249   -3.0390 H         1 UNK         0.2993 
    100 H100       27.6355   24.7330   -3.1604 H         1 UNK         0.0949 
    101 H101       28.3803   27.3778   -1.7662 H         1 UNK         0.0767 
    102 H102       29.1194   26.7678   -3.2439 H         1 UNK         0.0767 
    103 H103       27.4313   27.2366   -3.2415 H         1 UNK         0.0767 
    104 H104       29.6579   25.3647   -1.1954 H         1 UNK         0.3013 
    105 H105       27.1015   28.0276    3.9247 H         1 UNK         0.3121 
    106 H106       29.0811   28.7299    5.8325 H         1 UNK         0.0774 
    107 H107       27.1157   29.4931    7.1780 H         1 UNK         0.0815 
    108 H108       26.0828   29.3802    5.7603 H         1 UNK         0.0815 
    109 H109       26.8111   27.9266    6.4477 H         1 UNK         0.0815 
    110 H110       27.6444   30.6473    3.2940 H         1 UNK         0.2987 
    111 H111       28.9025   33.1462    4.3767 H         1 UNK         0.0949 
    112 H112       26.6135   32.8052    2.3606 H         1 UNK         0.0806 
    113 H113       26.4525   33.3752    4.0205 H         1 UNK         0.0806 
    114 H114       27.3368   34.3344    2.8446 H         1 UNK         0.0806 
    115 H115       28.4098   31.0758    1.4787 H         1 UNK         0.3010 
    116 H116       30.0095   32.6447   -0.2558 H         1 UNK         0.0829 
    117 H117       29.7362   30.7361   -1.8191 H         1 UNK         0.0813 
    118 H118       29.1520   29.7144   -0.5164 H         1 UNK         0.0813 
    119 H119       28.2117   31.1120   -1.0319 H         1 UNK         0.0813 
    120 H120       30.8938   29.8817    1.8159 H         1 UNK         0.3038 
    121 H121       33.7393   30.0975    0.8873 H         1 UNK         0.0769 
    122 H122       33.9839   27.7531    1.6617 H         1 UNK         0.0811 
    123 H123       32.7973   27.8840    0.3770 H         1 UNK         0.0811 
    124 H124       32.2656   27.6682    2.0393 H         1 UNK         0.0811 
    125 H125       31.6308   29.4193    3.7077 H         1 UNK         0.3204 
    126 H126       31.7481   29.8441    5.8788 H         1 UNK         0.0748 
    127 H127       32.3545   32.1437    6.5234 H         1 UNK         0.0771 
    128 H128       33.2849   32.3621    5.0460 H         1 UNK         0.0771 
    129 H129       31.5348   32.1757    4.9723 H         1 UNK         0.0771 
    130 H130       33.6461   27.9594    5.2195 H         1 UNK         0.2980 
    131 H131       36.2254   28.5311    6.2981 H         1 UNK         0.0545 
    132 H132       37.2746   27.4448    8.2017 H         1 UNK         0.3459 
    133 H133       36.3083   27.2577    9.6414 H         1 UNK         0.3459 
    134 H134       36.0032   26.8014    4.6127 H         1 UNK         0.0616 
    135 H135       36.6768   26.1173    6.0561 H         1 UNK         0.0616 
    136 H136       34.7203   24.9243    3.2941 H         1 UNK         0.0634 
    137 H137       33.6988   26.3020    3.6420 H         1 UNK         0.0634 
@<TRIPOS>BOND
     1    1    2 1    
     2    1   72 1    
     3    1   73 1    
     4    1   74 1    
     5    2    3 2    
     6    2    4 am   BACKBONE|DICT|INTERRES
     7    4    5 1    
     8    4   75 1    
     9    5    6 1    
    10    5   35 1    
    11    5   76 1    
    12    6    7 1    
    13    6   77 1    
    14    6   78 1    
    15    7    8 1    
    16    8    9 1    
    17    8   79 1    
    18    8   80 1    
    19    9   10 ar   
    20    9   14 ar   
    21   10   11 ar   
    22   10   81 1    
    23   11   12 ar   
    24   11   71 1    
    25   12   13 ar   
    26   12   82 1    
    27   13   14 ar   
    28   13   15 1    
    29   14   83 1    
    30   15   16 1    
    31   15   84 1    
    32   15   85 1    
    33   16   17 1    
    34   17   18 1    
    35   17   86 1    
    36   17   87 1    
    37   18   19 1    
    38   18   37 1    
    39   18   88 1    
    40   19   20 am   BACKBONE|DICT|INTERRES
    41   19   89 1    
    42   20   21 2    
    43   20   22 1    
    44   22   23 1    
    45   22   24 1    
    46   22   90 1    
    47   23   91 1    
    48   23   92 1    
    49   23   93 1    
    50   24   25 am   BACKBONE|DICT|INTERRES
    51   24   94 1    
    52   25   26 2    
    53   25   27 1    
    54   27   28 1    
    55   27   29 1    
    56   27   95 1    
    57   28   96 1    
    58   28   97 1    
    59   28   98 1    
    60   29   30 am   BACKBONE|DICT|INTERRES
    61   29   99 1    
    62   30   31 2    
    63   30   32 1    
    64   32   33 1    
    65   32   34 1    
    66   32  100 1    
    67   33  101 1    
    68   33  102 1    
    69   33  103 1    
    70   34   35 am   BACKBONE|DICT|INTERRES
    71   34  104 1    
    72   35   36 2    
    73   37   38 2    
    74   37   39 am   BACKBONE|DICT|INTERRES
    75   39   40 1    
    76   39  105 1    
    77   40   41 1    
    78   40   42 1    
    79   40  106 1    
    80   41  107 1    
    81   41  108 1    
    82   41  109 1    
    83   42   43 2    
    84   42   44 am   BACKBONE|DICT|INTERRES
    85   44   45 1    
    86   44  110 1    
    87   45   46 1    
    88   45   47 1    
    89   45  111 1    
    90   46  112 1    
    91   46  113 1    
    92   46  114 1    
    93   47   48 2    
    94   47   49 am   BACKBONE|DICT|INTERRES
    95   49   50 1    
    96   49  115 1    
    97   50   51 1    
    98   50   52 1    
    99   50  116 1    
   100   51  117 1    
   101   51  118 1    
   102   51  119 1    
   103   52   53 2    
   104   52   54 am   BACKBONE|DICT|INTERRES
   105   54   55 1    
   106   54  120 1    
   107   55   56 1    
   108   55   57 1    
   109   55  121 1    
   110   56  122 1    
   111   56  123 1    
   112   56  124 1    
   113   57   58 2    
   114   57   59 am   BACKBONE|DICT|INTERRES
   115   59   60 1    
   116   59  125 1    
   117   60   61 1    
   118   60   62 1    
   119   60  126 1    
   120   61  127 1    
   121   61  128 1    
   122   61  129 1    
   123   62   63 2    
   124   62   64 am   BACKBONE|DICT|INTERRES
   125   64   65 1    
   126   64  130 1    
   127   65   66 1    
   128   65   69 1    
   129   65  131 1    
   130   66   67 am   BACKBONE|DICT|INTERRES
   131   66   68 2    
   132   67  132 1    
   133   67  133 1    
   134   69   70 1    
   135   69  134 1    
   136   69  135 1    
   137   70   71 1    
   138   71  136 1    
   139   71  137 1    
@<TRIPOS>SUBSTRUCTURE
     1 UNK         1 GROUP             0       ****    0 ROOT    
