@<TRIPOS>MOLECULE
3R136
137   139    1
SMALL
USER_CHARGES


@<TRIPOS>ATOM
      1 CA         25.8267   26.5866    3.7989 C.3       0 UNK        -0.1979 
      2 C          26.7081   25.6443    2.9930 C.2       0 UNK         0.4864 
      3 O          27.3800   26.0855    2.0596 O.2       0 UNK        -0.5359 
      4 N          26.7208   24.3544    3.3548 N.am      1 UNK        -0.4318 
      5 CA         27.4714   23.2821    2.6868 C.3       1 UNK         0.0824 
      6 C6         29.0118   23.4975    2.7444 C.3       12 UNK        -0.0944 
      7 S7         29.9261   21.9357    2.9714 S.3       12 UNK        -0.2672 
      8 C8         30.9553   21.8677    1.4683 C.3       12 UNK         0.0333 
      9 C9         31.9797   22.9957    1.3934 C.ar      12 UNK        -0.0807 
     10 C10        32.8758   23.2207    2.4454 C.ar      12 UNK        -0.0894 
     11 C11        33.8105   24.2580    2.3732 C.ar      12 UNK        -0.0804 
     12 C12        33.8597   25.0622    1.2313 C.ar      12 UNK        -0.0824 
     13 C13        32.9811   24.8395    0.1679 C.ar      12 UNK        -0.0762 
     14 C14        32.0431   23.8054    0.2547 C.ar      12 UNK        -0.0782 
     15 C15        33.0507   25.7170   -1.0745 C.3       12 UNK         0.0230 
     16 S16        32.3673   27.3782   -0.7772 S.3       12 UNK        -0.2608 
     17 C17        30.6163   26.9780   -0.4733 C.3       12 UNK        -0.0989 
     18 CA         29.7877   28.1870    0.0181 C.3       5 UNK         0.0716 
     19 N          28.3617   27.8965   -0.0737 N.am      5 UNK        -0.4135 
     20 C          27.3592   28.7713    0.0672 C.2       4 UNK         0.5031 
     21 O          27.5281   29.9679    0.3040 O.2       4 UNK        -0.5229 
     22 CA         25.9322   28.1916   -0.0337 C.3       4 UNK         0.0329 
     23 CB         24.9130   29.2031   -0.5993 C.3       4 UNK        -0.2001 
     24 N          25.8874   26.9032   -0.7472 N.am      4 UNK        -0.4303 
     25 C          26.1443   26.6826   -2.0476 C.2       3 UNK         0.5044 
     26 O          26.3366   27.5793   -2.8691 O.2       3 UNK        -0.5152 
     27 CA         26.2712   25.2185   -2.5133 C.3       3 UNK         0.0319 
     28 CB         27.6827   24.9481   -3.0641 C.3       3 UNK        -0.2001 
     29 N          25.9959   24.2310   -1.4669 N.am      3 UNK        -0.4354 
     30 C          24.7847   23.8081   -1.0918 C.2       2 UNK         0.4964 
     31 O          23.7347   24.2475   -1.5601 O.2       2 UNK        -0.5047 
     32 CA         24.7285   22.7156   -0.0082 C.3       2 UNK         0.0288 
     33 CB         24.9955   21.3230   -0.6135 C.3       2 UNK        -0.2113 
     34 N          25.5764   22.9625    1.1699 N.am      2 UNK        -0.4145 
     35 C          26.9165   23.0016    1.2697 C.2       1 UNK         0.5006 
     36 O          27.6789   22.8604    0.3108 O.2       1 UNK        -0.5103 
     37 C          30.1692   28.6210    1.4453 C.2       5 UNK         0.5055 
     38 O          30.7686   29.6831    1.6121 O.2       5 UNK        -0.5220 
     39 N          29.7527   27.8347    2.4511 N.am      6 UNK        -0.4450 
     40 CA         30.0224   28.1234    3.8634 C.3       6 UNK         0.0367 
     41 CB         29.8442   26.8559    4.7119 C.3       6 UNK        -0.1929 
     42 C          29.1848   29.2923    4.4113 C.2       6 UNK         0.5070 
     43 O          29.5553   29.8700    5.4320 O.2       6 UNK        -0.5237 
     44 N          28.0864   29.6374    3.7239 N.am      7 UNK        -0.4739 
     45 CA         27.3022   30.8430    3.9939 C.3       7 UNK         0.0276 
     46 CB         25.8966   30.6998    3.3879 C.3       7 UNK        -0.1927 
     47 C          28.0083   32.1061    3.4699 C.2       7 UNK         0.5013 
     48 O          27.9475   33.1439    4.1300 O.2       7 UNK        -0.5193 
     49 N          28.6720   31.9961    2.3086 N.am      8 UNK        -0.4253 
     50 CA         29.4744   33.0614    1.7057 C.3       8 UNK         0.0242 
     51 CB         29.7413   32.7418    0.2253 C.3       8 UNK        -0.2000 
     52 C          30.7879   33.3093    2.4670 C.2       8 UNK         0.4948 
     53 O          31.0990   34.4646    2.7611 O.2       8 UNK        -0.5275 
     54 N          31.5246   32.2372    2.7862 N.am      9 UNK        -0.4246 
     55 CA         32.7615   32.2804    3.5639 C.3       9 UNK         0.0261 
     56 CB         33.9607   32.5781    2.6446 C.3       9 UNK        -0.1959 
     57 C          32.9227   30.9380    4.2802 C.2       9 UNK         0.5033 
     58 O          33.0880   29.9182    3.6105 O.2       9 UNK        -0.5390 
     59 N          32.8700   30.9518    5.6184 N.am      10 UNK        -0.4215 
     60 CA         32.8228   29.7769    6.5001 C.3       10 UNK         0.0240 
     61 CB         32.3107   30.2212    7.8837 C.3       10 UNK        -0.1982 
     62 C          34.1337   28.9636    6.5846 C.2       10 UNK         0.4970 
     63 O          34.6123   28.6845    7.6855 O.2       10 UNK        -0.4916 
     64 N          34.6721   28.5788    5.4226 N.am      11 UNK        -0.4279 
     65 CA         35.8049   27.6568    5.2274 C.3       11 UNK         0.1003 
     66 C          37.1751   28.1586    5.7780 C.2       11 UNK         0.5709 
     67 N          37.3459   29.4475    6.0476 N.am      11 UNK        -0.7358 
     68 O          38.1132   27.3790    5.9292 O.2       11 UNK        -0.4999 
     69 C69        35.4645   26.2008    5.6649 C.3       12 UNK        -0.0954 
     70 S70        33.9918   25.5507    4.8014 S.3       12 UNK        -0.2268 
     71 C71        34.7691   24.5159    3.5246 C.3       12 UNK         0.0203 
     72 H72        26.4261   27.3848    4.2336 H         1 UNK         0.0888 
     73 H73        25.0695   27.0364    3.1582 H         1 UNK         0.0888 
     74 H74        25.3163   26.0701    4.6116 H         1 UNK         0.0888 
     75 H75        26.1639   24.0621    4.1465 H         1 UNK         0.3017 
     76 H76        27.2385   22.3873    3.2666 H         1 UNK         0.0873 
     77 H77        29.2673   24.1127    3.6071 H         1 UNK         0.0745 
     78 H78        29.3797   24.0522    1.8793 H         1 UNK         0.0745 
     79 H79        31.4838   20.9139    1.4488 H         1 UNK         0.0705 
     80 H80        30.2996   21.8744    0.5960 H         1 UNK         0.0705 
     81 H81        32.8350   22.5970    3.3281 H         1 UNK         0.1334 
     82 H82        34.5775   25.8691    1.1705 H         1 UNK         0.1417 
     83 H83        31.3589   23.6328   -0.5652 H         1 UNK         0.1562 
     84 H84        32.5227   25.2536   -1.9094 H         1 UNK         0.0748 
     85 H85        34.0908   25.8149   -1.3890 H         1 UNK         0.0748 
     86 H86        30.5405   26.1527    0.2364 H         1 UNK         0.0940 
     87 H87        30.2085   26.6066   -1.4148 H         1 UNK         0.0940 
     88 H88        29.9833   29.0307   -0.6478 H         1 UNK         0.0703 
     89 H89        28.1070   26.9242   -0.1640 H         1 UNK         0.3081 
     90 H90        25.6306   27.9752    0.9908 H         1 UNK         0.0719 
     91 H91        23.9174   28.7657   -0.6717 H         1 UNK         0.0809 
     92 H92        24.8350   30.0794    0.0452 H         1 UNK         0.0809 
     93 H93        25.1977   29.5596   -1.5893 H         1 UNK         0.0809 
     94 H94        25.7582   26.0899   -0.1616 H         1 UNK         0.2990 
     95 H95        25.5558   25.0778   -3.3263 H         1 UNK         0.0690 
     96 H96        28.4442   25.0506   -2.2904 H         1 UNK         0.0788 
     97 H97        27.9352   25.6420   -3.8672 H         1 UNK         0.0788 
     98 H98        27.7595   23.9414   -3.4754 H         1 UNK         0.0788 
     99 H99        26.7963   23.8011   -1.0064 H         1 UNK         0.2993 
    100 H100       23.7034   22.7117    0.3669 H         1 UNK         0.0949 
    101 H101       26.0029   21.2390   -1.0224 H         1 UNK         0.0767 
    102 H102       24.8702   20.5371    0.1314 H         1 UNK         0.0767 
    103 H103       24.2989   21.1124   -1.4263 H         1 UNK         0.0767 
    104 H104       25.0601   23.1371    2.0209 H         1 UNK         0.3013 
    105 H105       29.1665   27.0314    2.2441 H         1 UNK         0.3121 
    106 H106       31.0694   28.4142    3.9448 H         1 UNK         0.0774 
    107 H107       28.8169   26.4974    4.7051 H         1 UNK         0.0815 
    108 H108       30.1115   27.0480    5.7519 H         1 UNK         0.0815 
    109 H109       30.4916   26.0527    4.3594 H         1 UNK         0.0815 
    110 H110       27.8626   29.1171    2.8887 H         1 UNK         0.2987 
    111 H111       27.1916   30.9502    5.0757 H         1 UNK         0.0949 
    112 H112       25.9256   30.6155    2.3022 H         1 UNK         0.0806 
    113 H113       25.3806   29.8237    3.7807 H         1 UNK         0.0806 
    114 H114       25.2832   31.5695    3.6270 H         1 UNK         0.0806 
    115 H115       28.6327   31.1181    1.8045 H         1 UNK         0.3010 
    116 H116       28.8902   33.9834    1.7457 H         1 UNK         0.0829 
    117 H117       28.8091   32.6248   -0.3280 H         1 UNK         0.0813 
    118 H118       30.3039   33.5457   -0.2510 H         1 UNK         0.0813 
    119 H119       30.3171   31.8243    0.1023 H         1 UNK         0.0813 
    120 H120       31.2256   31.3093    2.4838 H         1 UNK         0.3038 
    121 H121       32.6904   33.0717    4.3134 H         1 UNK         0.0769 
    122 H122       34.0527   31.8347    1.8515 H         1 UNK         0.0811 
    123 H123       34.8949   32.5743    3.2075 H         1 UNK         0.0811 
    124 H124       33.8682   33.5575    2.1752 H         1 UNK         0.0811 
    125 H125       32.7680   31.8448    6.0789 H         1 UNK         0.3204 
    126 H126       32.0790   29.0913    6.0906 H         1 UNK         0.0748 
    127 H127       32.9975   30.9194    8.3638 H         1 UNK         0.0771 
    128 H128       31.3356   30.7034    7.8075 H         1 UNK         0.0771 
    129 H129       32.1905   29.3673    8.5519 H         1 UNK         0.0771 
    130 H130       34.2028   28.8953    4.5753 H         1 UNK         0.2980 
    131 H131       35.9560   27.6310    4.1478 H         1 UNK         0.0545 
    132 H132       38.2375   29.7669    6.3917 H         1 UNK         0.3459 
    133 H133       36.5864   30.0975    5.9258 H         1 UNK         0.3459 
    134 H134       36.3037   25.5286    5.4781 H         1 UNK         0.0616 
    135 H135       35.2803   26.1578    6.7393 H         1 UNK         0.0616 
    136 H136       35.0909   23.5729    3.9691 H         1 UNK         0.0634 
    137 H137       35.6697   25.0077    3.1532 H         1 UNK         0.0634 
@<TRIPOS>BOND
     1    1    2 1    
     2    1   72 1    
     3    1   73 1    
     4    1   74 1    
     5    2    3 2    
     6    2    4 am   BACKBONE|DICT|INTERRES
     7    4    5 1    
     8    4   75 1    
     9    5    6 1    
    10    5   35 1    
    11    5   76 1    
    12    6    7 1    
    13    6   77 1    
    14    6   78 1    
    15    7    8 1    
    16    8    9 1    
    17    8   79 1    
    18    8   80 1    
    19    9   10 ar   
    20    9   14 ar   
    21   10   11 ar   
    22   10   81 1    
    23   11   12 ar   
    24   11   71 1    
    25   12   13 ar   
    26   12   82 1    
    27   13   14 ar   
    28   13   15 1    
    29   14   83 1    
    30   15   16 1    
    31   15   84 1    
    32   15   85 1    
    33   16   17 1    
    34   17   18 1    
    35   17   86 1    
    36   17   87 1    
    37   18   19 1    
    38   18   37 1    
    39   18   88 1    
    40   19   20 am   BACKBONE|DICT|INTERRES
    41   19   89 1    
    42   20   21 2    
    43   20   22 1    
    44   22   23 1    
    45   22   24 1    
    46   22   90 1    
    47   23   91 1    
    48   23   92 1    
    49   23   93 1    
    50   24   25 am   BACKBONE|DICT|INTERRES
    51   24   94 1    
    52   25   26 2    
    53   25   27 1    
    54   27   28 1    
    55   27   29 1    
    56   27   95 1    
    57   28   96 1    
    58   28   97 1    
    59   28   98 1    
    60   29   30 am   BACKBONE|DICT|INTERRES
    61   29   99 1    
    62   30   31 2    
    63   30   32 1    
    64   32   33 1    
    65   32   34 1    
    66   32  100 1    
    67   33  101 1    
    68   33  102 1    
    69   33  103 1    
    70   34   35 am   BACKBONE|DICT|INTERRES
    71   34  104 1    
    72   35   36 2    
    73   37   38 2    
    74   37   39 am   BACKBONE|DICT|INTERRES
    75   39   40 1    
    76   39  105 1    
    77   40   41 1    
    78   40   42 1    
    79   40  106 1    
    80   41  107 1    
    81   41  108 1    
    82   41  109 1    
    83   42   43 2    
    84   42   44 am   BACKBONE|DICT|INTERRES
    85   44   45 1    
    86   44  110 1    
    87   45   46 1    
    88   45   47 1    
    89   45  111 1    
    90   46  112 1    
    91   46  113 1    
    92   46  114 1    
    93   47   48 2    
    94   47   49 am   BACKBONE|DICT|INTERRES
    95   49   50 1    
    96   49  115 1    
    97   50   51 1    
    98   50   52 1    
    99   50  116 1    
   100   51  117 1    
   101   51  118 1    
   102   51  119 1    
   103   52   53 2    
   104   52   54 am   BACKBONE|DICT|INTERRES
   105   54   55 1    
   106   54  120 1    
   107   55   56 1    
   108   55   57 1    
   109   55  121 1    
   110   56  122 1    
   111   56  123 1    
   112   56  124 1    
   113   57   58 2    
   114   57   59 am   BACKBONE|DICT|INTERRES
   115   59   60 1    
   116   59  125 1    
   117   60   61 1    
   118   60   62 1    
   119   60  126 1    
   120   61  127 1    
   121   61  128 1    
   122   61  129 1    
   123   62   63 2    
   124   62   64 am   BACKBONE|DICT|INTERRES
   125   64   65 1    
   126   64  130 1    
   127   65   66 1    
   128   65   69 1    
   129   65  131 1    
   130   66   67 am   BACKBONE|DICT|INTERRES
   131   66   68 2    
   132   67  132 1    
   133   67  133 1    
   134   69   70 1    
   135   69  134 1    
   136   69  135 1    
   137   70   71 1    
   138   71  136 1    
   139   71  137 1    
@<TRIPOS>SUBSTRUCTURE
     1 UNK         1 GROUP             0       ****    0 ROOT    
