@<TRIPOS>MOLECULE
3R136
137   139    1
SMALL
USER_CHARGES


@<TRIPOS>ATOM
      1 CA         30.3133   27.6995   -0.1483 C.3       0 UNK        -0.1979 
      2 C          30.1753   26.1853   -0.1273 C.2       0 UNK         0.4864 
      3 O          30.1721   25.5578   -1.1872 O.2       0 UNK        -0.5359 
      4 N          30.0455   25.6060    1.0753 N.am      1 UNK        -0.4318 
      5 CA         29.8486   24.1802    1.3586 C.3       1 UNK         0.0824 
      6 C6         31.1712   23.3632    1.2805 C.3       12 UNK        -0.0944 
      7 S7         31.0514   21.7831    2.1963 S.3       12 UNK        -0.2672 
      8 C8         31.7873   22.1870    3.8198 C.3       12 UNK         0.0333 
      9 C9         31.1624   23.4333    4.4303 C.ar      12 UNK        -0.0807 
     10 C10        31.8764   24.6333    4.4458 C.ar      12 UNK        -0.0894 
     11 C11        31.2716   25.8166    4.8764 C.ar      12 UNK        -0.0804 
     12 C12        29.9486   25.7859    5.3305 C.ar      12 UNK        -0.0824 
     13 C13        29.2356   24.5824    5.3544 C.ar      12 UNK        -0.0762 
     14 C14        29.8518   23.4062    4.9151 C.ar      12 UNK        -0.0782 
     15 C15        27.7947   24.5427    5.8385 C.3       12 UNK         0.0230 
     16 S16        26.6176   24.6550    4.4523 S.3       12 UNK        -0.2608 
     17 C17        26.4564   26.4598    4.2152 C.3       12 UNK        -0.0989 
     18 CA         26.7955   26.9345    2.7729 C.3       5 UNK         0.0716 
     19 N          26.0237   26.2290    1.7376 N.am      5 UNK        -0.4135 
     20 C          24.7148   26.3719    1.4774 C.2       4 UNK         0.5031 
     21 O          23.9564   27.0573    2.1666 O.2       4 UNK        -0.5229 
     22 CA         24.1532   25.6608    0.2255 C.3       4 UNK         0.0329 
     23 CB         22.9358   26.4079   -0.3591 C.3       4 UNK        -0.2001 
     24 N          25.1192   25.3981   -0.8522 N.am      4 UNK        -0.4303 
     25 C          25.9605   26.2519   -1.4564 C.2       3 UNK         0.5044 
     26 O          26.1494   27.4112   -1.0843 O.2       3 UNK        -0.5152 
     27 CA         26.7438   25.6885   -2.6610 C.3       3 UNK         0.0319 
     28 CB         27.6509   26.7375   -3.3292 C.3       3 UNK        -0.2001 
     29 N          27.5500   24.5308   -2.2668 N.am      3 UNK        -0.4354 
     30 C          27.0703   23.2875   -2.1074 C.2       2 UNK         0.4964 
     31 O          25.9208   22.9629   -2.4086 O.2       2 UNK        -0.5047 
     32 CA         27.9839   22.2473   -1.4329 C.3       2 UNK         0.0288 
     33 CB         28.7328   21.4213   -2.4906 C.3       2 UNK        -0.2113 
     34 N          28.9519   22.8184   -0.4919 N.am      2 UNK        -0.4145 
     35 C          28.6625   23.5967    0.5625 C.2       1 UNK         0.5006 
     36 O          27.5164   23.9083    0.8921 O.2       1 UNK        -0.5103 
     37 C          26.6979   28.4792    2.6331 C.2       5 UNK         0.5055 
     38 O          26.7039   29.1806    3.6459 O.2       5 UNK        -0.5220 
     39 N          26.5583   28.9875    1.3961 N.am      6 UNK        -0.4450 
     40 CA         26.2166   30.3882    1.1157 C.3       6 UNK         0.0367 
     41 CB         25.7067   30.5018   -0.3302 C.3       6 UNK        -0.1929 
     42 C          27.3516   31.3989    1.3590 C.2       6 UNK         0.5070 
     43 O          27.0667   32.5840    1.5401 O.2       6 UNK        -0.5237 
     44 N          28.6069   30.9365    1.3304 N.am      7 UNK        -0.4739 
     45 CA         29.7963   31.7579    1.5708 C.3       7 UNK         0.0276 
     46 CB         31.0106   31.0763    0.9139 C.3       7 UNK        -0.1927 
     47 C          30.0466   31.9902    3.0730 C.2       7 UNK         0.5013 
     48 O          29.4155   31.3552    3.9217 O.2       7 UNK        -0.5193 
     49 N          31.0043   32.8792    3.3704 N.am      8 UNK        -0.4253 
     50 CA         31.5815   33.0694    4.7055 C.3       8 UNK         0.0242 
     51 CB         32.4665   34.3278    4.6849 C.3       8 UNK        -0.2000 
     52 C          32.3988   31.8393    5.1456 C.2       8 UNK         0.4948 
     53 O          32.7302   30.9956    4.3097 O.2       8 UNK        -0.5275 
     54 N          32.7439   31.7712    6.4396 N.am      9 UNK        -0.4246 
     55 CA         33.4558   30.6668    7.1056 C.3       9 UNK         0.0261 
     56 CB         33.3291   30.8482    8.6303 C.3       9 UNK        -0.1959 
     57 C          34.9235   30.4550    6.6566 C.2       9 UNK         0.5033 
     58 O          35.8177   30.3146    7.4932 O.2       9 UNK        -0.5390 
     59 N          35.1355   30.4136    5.3413 N.am      10 UNK        -0.4215 
     60 CA         36.3792   30.1329    4.6327 C.3       10 UNK         0.0240 
     61 CB         37.2798   31.3851    4.6122 C.3       10 UNK        -0.1982 
     62 C          36.0223   29.6127    3.2290 C.2       10 UNK         0.4970 
     63 O          36.5718   30.0906    2.2349 O.2       10 UNK        -0.4916 
     64 N          35.0643   28.6762    3.1791 N.am      11 UNK        -0.4279 
     65 CA         34.5095   28.0646    1.9621 C.3       11 UNK         0.1003 
     66 C          35.5813   27.3444    1.0975 C.2       11 UNK         0.5709 
     67 N          35.4824   27.4383   -0.2217 N.am      11 UNK        -0.7358 
     68 O          36.4693   26.6664    1.6118 O.2       11 UNK        -0.4999 
     69 C69        33.3541   27.0859    2.3019 C.3       12 UNK        -0.0954 
     70 S70        31.9656   27.8865    3.1789 S.3       12 UNK        -0.2268 
     71 C71        32.0405   27.1291    4.8326 C.3       12 UNK         0.0203 
     72 H72        31.3320   27.9803   -0.4138 H         1 UNK         0.0888 
     73 H73        29.6357   28.1345   -0.8818 H         1 UNK         0.0888 
     74 H74        30.0782   28.1348    0.8214 H         1 UNK         0.0888 
     75 H75        30.0915   26.1893    1.8990 H         1 UNK         0.3017 
     76 H76        29.5085   24.1679    2.3915 H         1 UNK         0.0873 
     77 H77        31.9924   23.9425    1.7041 H         1 UNK         0.0745 
     78 H78        31.4713   23.1697    0.2498 H         1 UNK         0.0745 
     79 H79        31.6496   21.3412    4.4948 H         1 UNK         0.0705 
     80 H80        32.8646   22.3119    3.6997 H         1 UNK         0.0705 
     81 H81        32.8943   24.6467    4.0863 H         1 UNK         0.1334 
     82 H82        29.4734   26.6999    5.6596 H         1 UNK         0.1417 
     83 H83        29.2947   22.4789    4.9017 H         1 UNK         0.1562 
     84 H84        27.6040   25.3346    6.5644 H         1 UNK         0.0748 
     85 H85        27.6171   23.6053    6.3679 H         1 UNK         0.0748 
     86 H86        27.0961   26.9690    4.9375 H         1 UNK         0.0940 
     87 H87        25.4345   26.7413    4.4758 H         1 UNK         0.0940 
     88 H88        27.8406   26.6874    2.5865 H         1 UNK         0.0703 
     89 H89        26.5452   25.5539    1.1850 H         1 UNK         0.3081 
     90 H90        23.8116   24.6834    0.5686 H         1 UNK         0.0719 
     91 H91        23.2021   27.4163   -0.6786 H         1 UNK         0.0809 
     92 H92        22.5217   25.8820   -1.2193 H         1 UNK         0.0809 
     93 H93        22.1346   26.4983    0.3756 H         1 UNK         0.0809 
     94 H94        25.1073   24.4529   -1.2214 H         1 UNK         0.2990 
     95 H95        26.0076   25.3754   -3.4044 H         1 UNK         0.0690 
     96 H96        28.1539   26.3260   -4.2043 H         1 UNK         0.0788 
     97 H97        28.4160   27.1053   -2.6469 H         1 UNK         0.0788 
     98 H98        27.0710   27.5989   -3.6633 H         1 UNK         0.0788 
     99 H99        28.4962   24.7309   -1.9533 H         1 UNK         0.2993 
    100 H100       27.3389   21.5754   -0.8630 H         1 UNK         0.0949 
    101 H101       29.3068   20.6154   -2.0325 H         1 UNK         0.0767 
    102 H102       28.0355   20.9613   -3.1926 H         1 UNK         0.0767 
    103 H103       29.4208   22.0380   -3.0707 H         1 UNK         0.0767 
    104 H104       29.9257   22.6466   -0.6941 H         1 UNK         0.3013 
    105 H105       26.5177   28.3518    0.6024 H         1 UNK         0.3121 
    106 H106       25.3958   30.6675    1.7800 H         1 UNK         0.0774 
    107 H107       25.4071   31.5247   -0.5624 H         1 UNK         0.0815 
    108 H108       26.4734   30.2139   -1.0507 H         1 UNK         0.0815 
    109 H109       24.8370   29.8653   -0.4950 H         1 UNK         0.0815 
    110 H110       28.7440   29.9431    1.2319 H         1 UNK         0.2987 
    111 H111       29.6491   32.7317    1.0978 H         1 UNK         0.0949 
    112 H112       31.2746   30.1496    1.4221 H         1 UNK         0.0806 
    113 H113       30.8236   30.8476   -0.1354 H         1 UNK         0.0806 
    114 H114       31.8913   31.7183    0.9489 H         1 UNK         0.0806 
    115 H115       31.4888   33.3323    2.6099 H         1 UNK         0.3010 
    116 H116       30.7660   33.2145    5.4172 H         1 UNK         0.0829 
    117 H117       31.8992   35.2069    4.3781 H         1 UNK         0.0813 
    118 H118       32.8760   34.5414    5.6729 H         1 UNK         0.0813 
    119 H119       33.3095   34.2171    4.0012 H         1 UNK         0.0813 
    120 H120       32.4676   32.5343    7.0407 H         1 UNK         0.3038 
    121 H121       32.9293   29.7460    6.8458 H         1 UNK         0.0769 
    122 H122       33.7718   30.0067    9.1652 H         1 UNK         0.0811 
    123 H123       32.2854   30.9075    8.9396 H         1 UNK         0.0811 
    124 H124       33.8340   31.7532    8.9707 H         1 UNK         0.0811 
    125 H125       34.3115   30.5596    4.7502 H         1 UNK         0.3204 
    126 H126       36.9072   29.3289    5.1493 H         1 UNK         0.0748 
    127 H127       38.2176   31.1850    4.0924 H         1 UNK         0.0771 
    128 H128       36.7935   32.2195    4.1055 H         1 UNK         0.0771 
    129 H129       37.5343   31.7090    5.6214 H         1 UNK         0.0771 
    130 H130       34.6693   28.3475    4.0459 H         1 UNK         0.2980 
    131 H131       34.0950   28.8814    1.3678 H         1 UNK         0.0545 
    132 H132       34.7545   27.9847   -0.6544 H         1 UNK         0.3459 
    133 H133       36.1603   26.9636   -0.7970 H         1 UNK         0.3459 
    134 H134       32.9487   26.6455    1.3895 H         1 UNK         0.0616 
    135 H135       33.7394   26.2552    2.8908 H         1 UNK         0.0616 
    136 H136       33.0780   26.9761    5.1324 H         1 UNK         0.0634 
    137 H137       31.6177   27.8327    5.5514 H         1 UNK         0.0634 
@<TRIPOS>BOND
     1    1    2 1    
     2    1   72 1    
     3    1   73 1    
     4    1   74 1    
     5    2    3 2    
     6    2    4 am   BACKBONE|DICT|INTERRES
     7    4    5 1    
     8    4   75 1    
     9    5    6 1    
    10    5   35 1    
    11    5   76 1    
    12    6    7 1    
    13    6   77 1    
    14    6   78 1    
    15    7    8 1    
    16    8    9 1    
    17    8   79 1    
    18    8   80 1    
    19    9   10 ar   
    20    9   14 ar   
    21   10   11 ar   
    22   10   81 1    
    23   11   12 ar   
    24   11   71 1    
    25   12   13 ar   
    26   12   82 1    
    27   13   14 ar   
    28   13   15 1    
    29   14   83 1    
    30   15   16 1    
    31   15   84 1    
    32   15   85 1    
    33   16   17 1    
    34   17   18 1    
    35   17   86 1    
    36   17   87 1    
    37   18   19 1    
    38   18   37 1    
    39   18   88 1    
    40   19   20 am   BACKBONE|DICT|INTERRES
    41   19   89 1    
    42   20   21 2    
    43   20   22 1    
    44   22   23 1    
    45   22   24 1    
    46   22   90 1    
    47   23   91 1    
    48   23   92 1    
    49   23   93 1    
    50   24   25 am   BACKBONE|DICT|INTERRES
    51   24   94 1    
    52   25   26 2    
    53   25   27 1    
    54   27   28 1    
    55   27   29 1    
    56   27   95 1    
    57   28   96 1    
    58   28   97 1    
    59   28   98 1    
    60   29   30 am   BACKBONE|DICT|INTERRES
    61   29   99 1    
    62   30   31 2    
    63   30   32 1    
    64   32   33 1    
    65   32   34 1    
    66   32  100 1    
    67   33  101 1    
    68   33  102 1    
    69   33  103 1    
    70   34   35 am   BACKBONE|DICT|INTERRES
    71   34  104 1    
    72   35   36 2    
    73   37   38 2    
    74   37   39 am   BACKBONE|DICT|INTERRES
    75   39   40 1    
    76   39  105 1    
    77   40   41 1    
    78   40   42 1    
    79   40  106 1    
    80   41  107 1    
    81   41  108 1    
    82   41  109 1    
    83   42   43 2    
    84   42   44 am   BACKBONE|DICT|INTERRES
    85   44   45 1    
    86   44  110 1    
    87   45   46 1    
    88   45   47 1    
    89   45  111 1    
    90   46  112 1    
    91   46  113 1    
    92   46  114 1    
    93   47   48 2    
    94   47   49 am   BACKBONE|DICT|INTERRES
    95   49   50 1    
    96   49  115 1    
    97   50   51 1    
    98   50   52 1    
    99   50  116 1    
   100   51  117 1    
   101   51  118 1    
   102   51  119 1    
   103   52   53 2    
   104   52   54 am   BACKBONE|DICT|INTERRES
   105   54   55 1    
   106   54  120 1    
   107   55   56 1    
   108   55   57 1    
   109   55  121 1    
   110   56  122 1    
   111   56  123 1    
   112   56  124 1    
   113   57   58 2    
   114   57   59 am   BACKBONE|DICT|INTERRES
   115   59   60 1    
   116   59  125 1    
   117   60   61 1    
   118   60   62 1    
   119   60  126 1    
   120   61  127 1    
   121   61  128 1    
   122   61  129 1    
   123   62   63 2    
   124   62   64 am   BACKBONE|DICT|INTERRES
   125   64   65 1    
   126   64  130 1    
   127   65   66 1    
   128   65   69 1    
   129   65  131 1    
   130   66   67 am   BACKBONE|DICT|INTERRES
   131   66   68 2    
   132   67  132 1    
   133   67  133 1    
   134   69   70 1    
   135   69  134 1    
   136   69  135 1    
   137   70   71 1    
   138   71  136 1    
   139   71  137 1    
@<TRIPOS>SUBSTRUCTURE
     1 UNK         1 GROUP             0       ****    0 ROOT    
