@<TRIPOS>MOLECULE
3R136
137   139    1
SMALL
USER_CHARGES


@<TRIPOS>ATOM
      1 CA         29.7490   22.3476    4.1607 C.3       0 UNK        -0.1979 
      2 C          28.8766   21.5894    3.1738 C.2       0 UNK         0.4864 
      3 O          27.7661   21.1830    3.5178 O.2       0 UNK        -0.5359 
      4 N          29.3698   21.4090    1.9406 N.am      1 UNK        -0.4318 
      5 CA         28.6264   20.8157    0.8203 C.3       1 UNK         0.0824 
      6 C6         29.5702   20.3281   -0.3079 C.3       12 UNK        -0.0944 
      7 S7         30.6335   21.6361   -1.0152 S.3       12 UNK        -0.2672 
      8 C8         32.1984   21.4187   -0.1048 C.3       12 UNK         0.0333 
      9 C9         32.6480   22.7291    0.5256 C.ar      12 UNK        -0.0807 
     10 C10        32.6496   22.8944    1.9162 C.ar      12 UNK        -0.0894 
     11 C11        33.0620   24.1050    2.4836 C.ar      12 UNK        -0.0804 
     12 C12        33.4975   25.1402    1.6527 C.ar      12 UNK        -0.0824 
     13 C13        33.4762   24.9969    0.2641 C.ar      12 UNK        -0.0762 
     14 C14        33.0629   23.7847   -0.2934 C.ar      12 UNK        -0.0782 
     15 C15        33.8848   26.1559   -0.6325 C.3       12 UNK         0.0230 
     16 S16        32.4373   27.0462   -1.2937 S.3       12 UNK        -0.2608 
     17 C17        31.7537   27.8572    0.1952 C.3       12 UNK        -0.0989 
     18 CA         30.2391   27.5770    0.3922 C.3       5 UNK         0.0716 
     19 N          29.8184   27.5944    1.7992 N.am      5 UNK        -0.4135 
     20 C          29.7988   28.6520    2.6269 C.2       4 UNK         0.5031 
     21 O          30.2429   29.7662    2.3383 O.2       4 UNK        -0.5229 
     22 CA         29.1412   28.4336    4.0073 C.3       4 UNK         0.0329 
     23 CB         28.7311   29.7563    4.6866 C.3       4 UNK        -0.2001 
     24 N          28.0030   27.5063    3.9737 N.am      4 UNK        -0.4303 
     25 C          26.8924   27.6219    3.2318 C.2       3 UNK         0.5044 
     26 O          26.6588   28.5609    2.4697 O.2       3 UNK        -0.5152 
     27 CA         25.9058   26.4455    3.2971 C.3       3 UNK         0.0319 
     28 CB         24.4719   26.9449    3.5426 C.3       3 UNK        -0.2001 
     29 N          25.9286   25.6275    2.0789 N.am      3 UNK        -0.4354 
     30 C          27.0106   25.0403    1.5500 C.2       2 UNK         0.4964 
     31 O          28.1601   25.1801    1.9817 O.2       2 UNK        -0.5047 
     32 CA         26.7836   24.1478    0.3260 C.3       2 UNK         0.0288 
     33 CB         27.0153   24.9270   -0.9790 C.3       2 UNK        -0.2113 
     34 N          27.7560   23.0714    0.4349 N.am      2 UNK        -0.4145 
     35 C          27.5201   21.7621    0.2993 C.2       1 UNK         0.5006 
     36 O          26.4784   21.2932   -0.1632 O.2       1 UNK        -0.5103 
     37 C          29.3183   28.4630   -0.4793 C.2       5 UNK         0.5055 
     38 O          29.7992   29.2703   -1.2754 O.2       5 UNK        -0.5220 
     39 N          28.0002   28.2966   -0.2881 N.am      6 UNK        -0.4450 
     40 CA         26.9058   29.0356   -0.9281 C.3       6 UNK         0.0367 
     41 CB         26.8775   28.7929   -2.4528 C.3       6 UNK        -0.1929 
     42 C          26.9228   30.5267   -0.5433 C.2       6 UNK         0.5070 
     43 O          26.9510   31.3972   -1.4151 O.2       6 UNK        -0.5237 
     44 N          26.9017   30.7757    0.7739 N.am      7 UNK        -0.4739 
     45 CA         26.8745   32.0838    1.4385 C.3       7 UNK         0.0276 
     46 CB         25.5547   32.8256    1.1358 C.3       7 UNK        -0.1927 
     47 C          28.1242   32.9469    1.1712 C.2       7 UNK         0.5013 
     48 O          28.0207   34.1737    1.1188 O.2       7 UNK        -0.5193 
     49 N          29.2917   32.3008    1.0450 N.am      8 UNK        -0.4253 
     50 CA         30.5932   32.9590    0.8856 C.3       8 UNK         0.0242 
     51 CB         31.5037   32.0601    0.0337 C.3       8 UNK        -0.2000 
     52 C          31.2661   33.2818    2.2341 C.2       8 UNK         0.4948 
     53 O          32.3628   33.8422    2.2312 O.2       8 UNK        -0.5275 
     54 N          30.6193   32.9064    3.3497 N.am      9 UNK        -0.4246 
     55 CA         31.0885   33.0052    4.7387 C.3       9 UNK         0.0261 
     56 CB         31.3270   34.4736    5.1534 C.3       9 UNK        -0.1959 
     57 C          32.2937   32.0883    5.0348 C.2       9 UNK         0.5033 
     58 O          33.1025   32.4030    5.9107 O.2       9 UNK        -0.5390 
     59 N          32.3849   30.9654    4.3098 N.am      10 UNK        -0.4215 
     60 CA         33.3879   29.9196    4.5051 C.3       10 UNK         0.0240 
     61 CB         33.6633   29.2626    3.1414 C.3       10 UNK        -0.1982 
     62 C          32.9161   28.8819    5.5430 C.2       10 UNK         0.4970 
     63 O          31.8617   29.0486    6.1599 O.2       10 UNK        -0.4916 
     64 N          33.7091   27.8135    5.6921 N.am      11 UNK        -0.4279 
     65 CA         33.4488   26.6354    6.5419 C.3       11 UNK         0.1003 
     66 C          33.5954   26.8858    8.0736 C.2       11 UNK         0.5709 
     67 N          34.1432   28.0128    8.5127 N.am      11 UNK        -0.7358 
     68 O          33.2404   26.0301    8.8811 O.2       11 UNK        -0.4999 
     69 C69        32.1337   25.8684    6.1929 C.3       12 UNK        -0.0954 
     70 S70        31.8287   25.6283    4.4103 S.3       12 UNK        -0.2268 
     71 C71        33.0251   24.3228    3.9891 C.3       12 UNK         0.0203 
     72 H72        29.1645   22.6751    5.0203 H         1 UNK         0.0888 
     73 H73        30.5609   21.7161    4.5201 H         1 UNK         0.0888 
     74 H74        30.1725   23.2348    3.6914 H         1 UNK         0.0888 
     75 H75        30.2825   21.7716    1.7069 H         1 UNK         0.3017 
     76 H76        28.1108   19.9331    1.2058 H         1 UNK         0.0873 
     77 H77        28.9857   19.8937   -1.1213 H         1 UNK         0.0745 
     78 H78        30.1933   19.5114    0.0591 H         1 UNK         0.0745 
     79 H79        32.9645   21.0686   -0.7981 H         1 UNK         0.0705 
     80 H80        32.1013   20.6428    0.6557 H         1 UNK         0.0705 
     81 H81        32.3335   22.0840    2.5580 H         1 UNK         0.1334 
     82 H82        33.8208   26.0728    2.0943 H         1 UNK         0.1417 
     83 H83        33.0454   23.6678   -1.3688 H         1 UNK         0.1562 
     84 H84        34.4775   25.7784   -1.4671 H         1 UNK         0.0748 
     85 H85        34.5277   26.8554   -0.0955 H         1 UNK         0.0748 
     86 H86        31.9687   28.9248    0.1600 H         1 UNK         0.0940 
     87 H87        32.2961   27.4815    1.0570 H         1 UNK         0.0940 
     88 H88        30.0533   26.5506    0.0709 H         1 UNK         0.0703 
     89 H89        29.4056   26.7263    2.1296 H         1 UNK         0.3081 
     90 H90        29.8993   27.9623    4.6330 H         1 UNK         0.0719 
     91 H91        28.2517   29.5750    5.6484 H         1 UNK         0.0809 
     92 H92        28.0419   30.3337    4.0709 H         1 UNK         0.0809 
     93 H93        29.6040   30.3765    4.8808 H         1 UNK         0.0809 
     94 H94        28.1161   26.6649    4.5225 H         1 UNK         0.2990 
     95 H95        26.1849   25.8002    4.1327 H         1 UNK         0.0690 
     96 H96        23.7788   26.1147    3.6796 H         1 UNK         0.0788 
     97 H97        24.1079   27.5537    2.7137 H         1 UNK         0.0788 
     98 H98        24.4215   27.5590    4.4429 H         1 UNK         0.0788 
     99 H99        25.0344   25.4774    1.6340 H         1 UNK         0.2993 
    100 H100       25.7670   23.7487    0.3498 H         1 UNK         0.0949 
    101 H101       28.0218   25.3443   -1.0298 H         1 UNK         0.0767 
    102 H102       26.8801   24.2836   -1.8486 H         1 UNK         0.0767 
    103 H103       26.3090   25.7526   -1.0734 H         1 UNK         0.0767 
    104 H104       28.6235   23.3548    0.8721 H         1 UNK         0.3013 
    105 H105       27.7145   27.6755    0.4555 H         1 UNK         0.3121 
    106 H106       25.9812   28.6260   -0.5179 H         1 UNK         0.0774 
    107 H107       25.9945   29.2502   -2.9007 H         1 UNK         0.0815 
    108 H108       27.7482   29.2197   -2.9512 H         1 UNK         0.0815 
    109 H109       26.8456   27.7290   -2.6863 H         1 UNK         0.0815 
    110 H110       26.8653   29.9704    1.4010 H         1 UNK         0.2987 
    111 H111       26.8850   31.8731    2.5087 H         1 UNK         0.0949 
    112 H112       25.4923   33.1318    0.0911 H         1 UNK         0.0806 
    113 H113       24.6891   32.2006    1.3552 H         1 UNK         0.0806 
    114 H114       25.4628   33.7267    1.7435 H         1 UNK         0.0806 
    115 H115       29.3111   31.2904    1.1325 H         1 UNK         0.3010 
    116 H116       30.4589   33.9030    0.3532 H         1 UNK         0.0829 
    117 H117       31.0285   31.7868   -0.9087 H         1 UNK         0.0813 
    118 H118       32.4390   32.5661   -0.2084 H         1 UNK         0.0813 
    119 H119       31.7594   31.1424    0.5614 H         1 UNK         0.0813 
    120 H120       29.7363   32.4346    3.2196 H         1 UNK         0.3038 
    121 H121       30.2731   32.6299    5.3581 H         1 UNK         0.0769 
    122 H122       32.1926   34.9038    4.6491 H         1 UNK         0.0811 
    123 H123       30.4617   35.0963    4.9268 H         1 UNK         0.0811 
    124 H124       31.5084   34.5511    6.2260 H         1 UNK         0.0811 
    125 H125       31.6574   30.7639    3.6331 H         1 UNK         0.3204 
    126 H126       34.3146   30.3684    4.8688 H         1 UNK         0.0748 
    127 H127       34.5325   28.6053    3.1763 H         1 UNK         0.0771 
    128 H128       32.8115   28.6642    2.8262 H         1 UNK         0.0771 
    129 H129       33.8563   30.0068    2.3681 H         1 UNK         0.0771 
    130 H130       34.5677   27.7754    5.1632 H         1 UNK         0.2980 
    131 H131       34.2705   25.9566    6.3139 H         1 UNK         0.0545 
    132 H132       34.4435   28.7223    7.8643 H         1 UNK         0.3459 
    133 H133       34.2439   28.1583    9.5048 H         1 UNK         0.3459 
    134 H134       32.1265   24.8880    6.6724 H         1 UNK         0.0616 
    135 H135       31.2723   26.4038    6.5954 H         1 UNK         0.0616 
    136 H136       32.7598   23.4050    4.5156 H         1 UNK         0.0634 
    137 H137       34.0200   24.6089    4.3313 H         1 UNK         0.0634 
@<TRIPOS>BOND
     1    1    2 1    
     2    1   72 1    
     3    1   73 1    
     4    1   74 1    
     5    2    3 2    
     6    2    4 am   BACKBONE|DICT|INTERRES
     7    4    5 1    
     8    4   75 1    
     9    5    6 1    
    10    5   35 1    
    11    5   76 1    
    12    6    7 1    
    13    6   77 1    
    14    6   78 1    
    15    7    8 1    
    16    8    9 1    
    17    8   79 1    
    18    8   80 1    
    19    9   10 ar   
    20    9   14 ar   
    21   10   11 ar   
    22   10   81 1    
    23   11   12 ar   
    24   11   71 1    
    25   12   13 ar   
    26   12   82 1    
    27   13   14 ar   
    28   13   15 1    
    29   14   83 1    
    30   15   16 1    
    31   15   84 1    
    32   15   85 1    
    33   16   17 1    
    34   17   18 1    
    35   17   86 1    
    36   17   87 1    
    37   18   19 1    
    38   18   37 1    
    39   18   88 1    
    40   19   20 am   BACKBONE|DICT|INTERRES
    41   19   89 1    
    42   20   21 2    
    43   20   22 1    
    44   22   23 1    
    45   22   24 1    
    46   22   90 1    
    47   23   91 1    
    48   23   92 1    
    49   23   93 1    
    50   24   25 am   BACKBONE|DICT|INTERRES
    51   24   94 1    
    52   25   26 2    
    53   25   27 1    
    54   27   28 1    
    55   27   29 1    
    56   27   95 1    
    57   28   96 1    
    58   28   97 1    
    59   28   98 1    
    60   29   30 am   BACKBONE|DICT|INTERRES
    61   29   99 1    
    62   30   31 2    
    63   30   32 1    
    64   32   33 1    
    65   32   34 1    
    66   32  100 1    
    67   33  101 1    
    68   33  102 1    
    69   33  103 1    
    70   34   35 am   BACKBONE|DICT|INTERRES
    71   34  104 1    
    72   35   36 2    
    73   37   38 2    
    74   37   39 am   BACKBONE|DICT|INTERRES
    75   39   40 1    
    76   39  105 1    
    77   40   41 1    
    78   40   42 1    
    79   40  106 1    
    80   41  107 1    
    81   41  108 1    
    82   41  109 1    
    83   42   43 2    
    84   42   44 am   BACKBONE|DICT|INTERRES
    85   44   45 1    
    86   44  110 1    
    87   45   46 1    
    88   45   47 1    
    89   45  111 1    
    90   46  112 1    
    91   46  113 1    
    92   46  114 1    
    93   47   48 2    
    94   47   49 am   BACKBONE|DICT|INTERRES
    95   49   50 1    
    96   49  115 1    
    97   50   51 1    
    98   50   52 1    
    99   50  116 1    
   100   51  117 1    
   101   51  118 1    
   102   51  119 1    
   103   52   53 2    
   104   52   54 am   BACKBONE|DICT|INTERRES
   105   54   55 1    
   106   54  120 1    
   107   55   56 1    
   108   55   57 1    
   109   55  121 1    
   110   56  122 1    
   111   56  123 1    
   112   56  124 1    
   113   57   58 2    
   114   57   59 am   BACKBONE|DICT|INTERRES
   115   59   60 1    
   116   59  125 1    
   117   60   61 1    
   118   60   62 1    
   119   60  126 1    
   120   61  127 1    
   121   61  128 1    
   122   61  129 1    
   123   62   63 2    
   124   62   64 am   BACKBONE|DICT|INTERRES
   125   64   65 1    
   126   64  130 1    
   127   65   66 1    
   128   65   69 1    
   129   65  131 1    
   130   66   67 am   BACKBONE|DICT|INTERRES
   131   66   68 2    
   132   67  132 1    
   133   67  133 1    
   134   69   70 1    
   135   69  134 1    
   136   69  135 1    
   137   70   71 1    
   138   71  136 1    
   139   71  137 1    
@<TRIPOS>SUBSTRUCTURE
     1 UNK         1 GROUP             0       ****    0 ROOT    
