@<TRIPOS>MOLECULE
3R136
137   139    1
SMALL
USER_CHARGES


@<TRIPOS>ATOM
      1 CA         25.8959   23.6469    4.8176 C.3       0 UNK        -0.1979 
      2 C          26.4751   22.7173    3.7621 C.2       0 UNK         0.4864 
      3 O          26.2115   21.5136    3.7910 O.2       0 UNK        -0.5359 
      4 N          27.2519   23.2639    2.8178 N.am      1 UNK        -0.4318 
      5 CA         27.9083   22.5329    1.7264 C.3       1 UNK         0.0824 
      6 C6         29.1681   23.2780    1.2139 C.3       12 UNK        -0.0944 
      7 S7         30.4679   23.3498    2.4937 S.3       12 UNK        -0.2672 
      8 C8         30.3564   25.0745    3.0628 C.3       12 UNK         0.0333 
      9 C9         31.1773   26.0108    2.1897 C.ar      12 UNK        -0.0807 
     10 C10        32.5379   26.1947    2.4522 C.ar      12 UNK        -0.0894 
     11 C11        33.2973   27.0766    1.6783 C.ar      12 UNK        -0.0804 
     12 C12        32.6919   27.7595    0.6194 C.ar      12 UNK        -0.0824 
     13 C13        31.3328   27.5824    0.3445 C.ar      12 UNK        -0.0762 
     14 C14        30.5778   26.7147    1.1413 C.ar      12 UNK        -0.0782 
     15 C15        30.6689   28.3811   -0.7673 C.3       12 UNK         0.0230 
     16 S16        29.7610   27.3346   -1.9479 S.3       12 UNK        -0.2608 
     17 C17        28.4656   28.5068   -2.4955 C.3       12 UNK        -0.0989 
     18 CA         27.0607   28.2559   -1.8742 C.3       5 UNK         0.0716 
     19 N          26.5644   26.9056   -2.1116 N.am      5 UNK        -0.4135 
     20 C          26.1588   26.4098   -3.2841 C.2       4 UNK         0.5031 
     21 O          26.1489   27.0506   -4.3363 O.2       4 UNK        -0.5229 
     22 CA         25.6735   24.9510   -3.2869 C.3       4 UNK         0.0329 
     23 CB         26.8398   23.9990   -3.5974 C.3       4 UNK        -0.2001 
     24 N          25.0439   24.5530   -2.0245 N.am      4 UNK        -0.4303 
     25 C          23.8273   24.9579   -1.6240 C.2       3 UNK         0.5044 
     26 O          23.1270   25.7340   -2.2766 O.2       3 UNK        -0.5152 
     27 CA         23.3025   24.4204   -0.2726 C.3       3 UNK         0.0319 
     28 CB         21.7629   24.3149   -0.2311 C.3       3 UNK        -0.2001 
     29 N          23.9249   23.1573    0.1436 N.am      3 UNK        -0.4354 
     30 C          23.9122   21.9828   -0.5080 C.2       2 UNK         0.4964 
     31 O          23.2371   21.7663   -1.5154 O.2       2 UNK        -0.5047 
     32 CA         24.8357   20.8724    0.0406 C.3       2 UNK         0.0288 
     33 CB         25.4088   19.9891   -1.0885 C.3       2 UNK        -0.2113 
     34 N          25.9263   21.3545    0.9044 N.am      2 UNK        -0.4145 
     35 C          26.8946   22.2347    0.6025 C.2       1 UNK         0.5006 
     36 O          26.9627   22.8363   -0.4715 O.2       1 UNK        -0.5103 
     37 C          27.0141   28.5090   -0.3562 C.2       5 UNK         0.5055 
     38 O          27.0386   27.5503    0.4229 O.2       5 UNK        -0.5220 
     39 N          26.9489   29.7867    0.0392 N.am      6 UNK        -0.4450 
     40 CA         27.0215   30.2182    1.4365 C.3       6 UNK         0.0367 
     41 CB         26.2935   31.5631    1.5973 C.3       6 UNK        -0.1929 
     42 C          28.4932   30.3407    1.8559 C.2       6 UNK         0.5070 
     43 O          29.2592   31.0134    1.1623 O.2       6 UNK        -0.5237 
     44 N          28.8615   29.6833    2.9620 N.am      7 UNK        -0.4739 
     45 CA         30.2296   29.6267    3.4851 C.3       7 UNK         0.0276 
     46 CB         30.2732   28.6434    4.6661 C.3       7 UNK        -0.1927 
     47 C          30.7620   31.0028    3.9195 C.2       7 UNK         0.5013 
     48 O          30.0259   31.7764    4.5382 O.2       7 UNK        -0.5193 
     49 N          32.0392   31.2607    3.6169 N.am      8 UNK        -0.4253 
     50 CA         32.7779   32.4372    4.0755 C.3       8 UNK         0.0242 
     51 CB         33.9331   32.7047    3.0953 C.3       8 UNK        -0.2000 
     52 C          33.3253   32.2074    5.4922 C.2       8 UNK         0.4948 
     53 O          33.4594   31.0590    5.9186 O.2       8 UNK        -0.5275 
     54 N          33.7055   33.2950    6.1775 N.am      9 UNK        -0.4246 
     55 CA         34.3222   33.2605    7.5124 C.3       9 UNK         0.0261 
     56 CB         34.5335   34.6965    8.0185 C.3       9 UNK        -0.1959 
     57 C          35.6437   32.4682    7.5663 C.2       9 UNK         0.5033 
     58 O          35.9346   31.8389    8.5843 O.2       9 UNK        -0.5390 
     59 N          36.3927   32.4757    6.4546 N.am      10 UNK        -0.4215 
     60 CA         37.6116   31.6897    6.2509 C.3       10 UNK         0.0240 
     61 CB         38.3302   32.2034    4.9922 C.3       10 UNK        -0.1982 
     62 C          37.3682   30.1710    6.1442 C.2       10 UNK         0.4970 
     63 O          38.3110   29.4068    6.3548 O.2       10 UNK        -0.4916 
     64 N          36.1359   29.7564    5.8186 N.am      11 UNK        -0.4279 
     65 CA         35.7287   28.3465    5.7138 C.3       11 UNK         0.1003 
     66 C          35.3785   27.6946    7.0838 C.2       11 UNK         0.5709 
     67 N          35.3405   28.4313    8.1892 N.am      11 UNK        -0.7358 
     68 O          35.1522   26.4886    7.1481 O.2       11 UNK        -0.4999 
     69 C69        34.5801   28.1529    4.6869 C.3       12 UNK        -0.0954 
     70 S70        35.0036   28.7817    3.0250 S.3       12 UNK        -0.2268 
     71 C71        34.7694   27.3052    1.9865 C.3       12 UNK         0.0203 
     72 H72        26.2076   24.6803    4.6670 H         1 UNK         0.0888 
     73 H73        24.8071   23.6131    4.7909 H         1 UNK         0.0888 
     74 H74        26.2224   23.3358    5.8096 H         1 UNK         0.0888 
     75 H75        27.4052   24.2613    2.8237 H         1 UNK         0.3017 
     76 H76        28.2395   21.5637    2.1072 H         1 UNK         0.0873 
     77 H77        29.5935   22.7588    0.3529 H         1 UNK         0.0745 
     78 H78        28.9175   24.2812    0.8661 H         1 UNK         0.0745 
     79 H79        29.3144   25.3943    3.0980 H         1 UNK         0.0705 
     80 H80        30.7203   25.1242    4.0902 H         1 UNK         0.0705 
     81 H81        33.0016   25.6560    3.2670 H         1 UNK         0.1334 
     82 H82        33.2784   28.4458    0.0235 H         1 UNK         0.1417 
     83 H83        29.5209   26.5957    0.9447 H         1 UNK         0.1562 
     84 H84        31.3984   28.9782   -1.3165 H         1 UNK         0.0748 
     85 H85        29.9824   29.0851   -0.3055 H         1 UNK         0.0748 
     86 H86        28.3976   28.4293   -3.5815 H         1 UNK         0.0940 
     87 H87        28.7882   29.5330   -2.3108 H         1 UNK         0.0940 
     88 H88        26.3514   28.9471   -2.3347 H         1 UNK         0.0703 
     89 H89        26.5364   26.3293   -1.2799 H         1 UNK         0.3081 
     90 H90        24.9324   24.8492   -4.0827 H         1 UNK         0.0719 
     91 H91        27.6285   24.0689   -2.8468 H         1 UNK         0.0809 
     92 H92        26.5067   22.9616   -3.6366 H         1 UNK         0.0809 
     93 H93        27.2884   24.2340   -4.5635 H         1 UNK         0.0809 
     94 H94        25.5738   23.9161   -1.4364 H         1 UNK         0.2990 
     95 H95        23.5994   25.1597    0.4728 H         1 UNK         0.0690 
     96 H96        21.4162   23.9432    0.7331 H         1 UNK         0.0788 
     97 H97        21.3812   23.6483   -1.0050 H         1 UNK         0.0788 
     98 H98        21.2985   25.2896   -0.3858 H         1 UNK         0.0788 
     99 H99        24.5126   23.2162    0.9627 H         1 UNK         0.2993 
    100 H100       24.2036   20.2425    0.6685 H         1 UNK         0.0949 
    101 H101       26.0431   19.1974   -0.6897 H         1 UNK         0.0767 
    102 H102       24.6119   19.5061   -1.6555 H         1 UNK         0.0767 
    103 H103       26.0028   20.5719   -1.7938 H         1 UNK         0.0767 
    104 H104       25.9210   21.0033    1.8587 H         1 UNK         0.3013 
    105 H105       26.9747   30.5200   -0.6551 H         1 UNK         0.3121 
    106 H106       26.5210   29.4829    2.0710 H         1 UNK         0.0774 
    107 H107       26.3259   31.9002    2.6342 H         1 UNK         0.0815 
    108 H108       26.7465   32.3458    0.9871 H         1 UNK         0.0815 
    109 H109       25.2436   31.4824    1.3153 H         1 UNK         0.0815 
    110 H110       28.1595   29.1818    3.4864 H         1 UNK         0.2987 
    111 H111       30.8701   29.2406    2.6897 H         1 UNK         0.0949 
    112 H112       29.6561   28.9857    5.4979 H         1 UNK         0.0806 
    113 H113       29.9245   27.6537    4.3751 H         1 UNK         0.0806 
    114 H114       31.2903   28.5299    5.0420 H         1 UNK         0.0806 
    115 H115       32.5870   30.5426    3.1647 H         1 UNK         0.3010 
    116 H116       32.1119   33.3030    4.0882 H         1 UNK         0.0829 
    117 H117       33.5649   32.8412    2.0782 H         1 UNK         0.0813 
    118 H118       34.4770   33.6115    3.3625 H         1 UNK         0.0813 
    119 H119       34.6527   31.8848    3.0820 H         1 UNK         0.0813 
    120 H120       33.5703   34.2066    5.7630 H         1 UNK         0.3038 
    121 H121       33.6198   32.7617    8.1838 H         1 UNK         0.0769 
    122 H122       35.2048   35.2606    7.3697 H         1 UNK         0.0811 
    123 H123       34.9704   34.6969    9.0182 H         1 UNK         0.0811 
    124 H124       33.5900   35.2392    8.0805 H         1 UNK         0.0811 
    125 H125       36.0737   33.0289    5.6731 H         1 UNK         0.3204 
    126 H126       38.2650   31.8540    7.1105 H         1 UNK         0.0748 
    127 H127       39.2642   31.6639    4.8277 H         1 UNK         0.0771 
    128 H128       37.7190   32.0756    4.0976 H         1 UNK         0.0771 
    129 H129       38.5818   33.2606    5.0809 H         1 UNK         0.0771 
    130 H130       35.3835   30.4278    5.7179 H         1 UNK         0.2980 
    131 H131       36.5829   27.7813    5.3364 H         1 UNK         0.0545 
    132 H132       35.5248   29.4231    8.1539 H         1 UNK         0.3459 
    133 H133       35.1184   27.9904    9.0675 H         1 UNK         0.3459 
    134 H134       34.3225   27.0961    4.6128 H         1 UNK         0.0616 
    135 H135       33.6741   28.6565    5.0218 H         1 UNK         0.0616 
    136 H136       35.2082   26.4323    2.4725 H         1 UNK         0.0634 
    137 H137       35.3203   27.4426    1.0550 H         1 UNK         0.0634 
@<TRIPOS>BOND
     1    1    2 1    
     2    1   72 1    
     3    1   73 1    
     4    1   74 1    
     5    2    3 2    
     6    2    4 am   BACKBONE|DICT|INTERRES
     7    4    5 1    
     8    4   75 1    
     9    5    6 1    
    10    5   35 1    
    11    5   76 1    
    12    6    7 1    
    13    6   77 1    
    14    6   78 1    
    15    7    8 1    
    16    8    9 1    
    17    8   79 1    
    18    8   80 1    
    19    9   10 ar   
    20    9   14 ar   
    21   10   11 ar   
    22   10   81 1    
    23   11   12 ar   
    24   11   71 1    
    25   12   13 ar   
    26   12   82 1    
    27   13   14 ar   
    28   13   15 1    
    29   14   83 1    
    30   15   16 1    
    31   15   84 1    
    32   15   85 1    
    33   16   17 1    
    34   17   18 1    
    35   17   86 1    
    36   17   87 1    
    37   18   19 1    
    38   18   37 1    
    39   18   88 1    
    40   19   20 am   BACKBONE|DICT|INTERRES
    41   19   89 1    
    42   20   21 2    
    43   20   22 1    
    44   22   23 1    
    45   22   24 1    
    46   22   90 1    
    47   23   91 1    
    48   23   92 1    
    49   23   93 1    
    50   24   25 am   BACKBONE|DICT|INTERRES
    51   24   94 1    
    52   25   26 2    
    53   25   27 1    
    54   27   28 1    
    55   27   29 1    
    56   27   95 1    
    57   28   96 1    
    58   28   97 1    
    59   28   98 1    
    60   29   30 am   BACKBONE|DICT|INTERRES
    61   29   99 1    
    62   30   31 2    
    63   30   32 1    
    64   32   33 1    
    65   32   34 1    
    66   32  100 1    
    67   33  101 1    
    68   33  102 1    
    69   33  103 1    
    70   34   35 am   BACKBONE|DICT|INTERRES
    71   34  104 1    
    72   35   36 2    
    73   37   38 2    
    74   37   39 am   BACKBONE|DICT|INTERRES
    75   39   40 1    
    76   39  105 1    
    77   40   41 1    
    78   40   42 1    
    79   40  106 1    
    80   41  107 1    
    81   41  108 1    
    82   41  109 1    
    83   42   43 2    
    84   42   44 am   BACKBONE|DICT|INTERRES
    85   44   45 1    
    86   44  110 1    
    87   45   46 1    
    88   45   47 1    
    89   45  111 1    
    90   46  112 1    
    91   46  113 1    
    92   46  114 1    
    93   47   48 2    
    94   47   49 am   BACKBONE|DICT|INTERRES
    95   49   50 1    
    96   49  115 1    
    97   50   51 1    
    98   50   52 1    
    99   50  116 1    
   100   51  117 1    
   101   51  118 1    
   102   51  119 1    
   103   52   53 2    
   104   52   54 am   BACKBONE|DICT|INTERRES
   105   54   55 1    
   106   54  120 1    
   107   55   56 1    
   108   55   57 1    
   109   55  121 1    
   110   56  122 1    
   111   56  123 1    
   112   56  124 1    
   113   57   58 2    
   114   57   59 am   BACKBONE|DICT|INTERRES
   115   59   60 1    
   116   59  125 1    
   117   60   61 1    
   118   60   62 1    
   119   60  126 1    
   120   61  127 1    
   121   61  128 1    
   122   61  129 1    
   123   62   63 2    
   124   62   64 am   BACKBONE|DICT|INTERRES
   125   64   65 1    
   126   64  130 1    
   127   65   66 1    
   128   65   69 1    
   129   65  131 1    
   130   66   67 am   BACKBONE|DICT|INTERRES
   131   66   68 2    
   132   67  132 1    
   133   67  133 1    
   134   69   70 1    
   135   69  134 1    
   136   69  135 1    
   137   70   71 1    
   138   71  136 1    
   139   71  137 1    
@<TRIPOS>SUBSTRUCTURE
     1 UNK         1 GROUP             0       ****    0 ROOT    
