@<TRIPOS>MOLECULE
3R136
137   139    1
SMALL
USER_CHARGES


@<TRIPOS>ATOM
      1 CA         26.5418   18.7664    1.4886 C.3       0 UNK        -0.1979 
      2 C          27.6032   19.4224    0.6173 C.2       0 UNK         0.4864 
      3 O          27.7344   19.0702   -0.5564 O.2       0 UNK        -0.5359 
      4 N          28.3647   20.3661    1.1848 N.am      1 UNK        -0.4318 
      5 CA         29.3961   21.1403    0.4859 C.3       1 UNK         0.0824 
      6 C6         30.3846   21.8052    1.4742 C.3       12 UNK        -0.0944 
      7 S7         31.3451   20.5728    2.4211 S.3       12 UNK        -0.2672 
      8 C8         30.7104   20.7838    4.1171 C.3       12 UNK         0.0333 
      9 C9         31.0523   22.1557    4.6793 C.ar      12 UNK        -0.0807 
     10 C10        32.3709   22.4664    5.0235 C.ar      12 UNK        -0.0894 
     11 C11        32.7066   23.7489    5.4734 C.ar      12 UNK        -0.0804 
     12 C12        31.7010   24.7096    5.6136 C.ar      12 UNK        -0.0824 
     13 C13        30.3754   24.4003    5.2995 C.ar      12 UNK        -0.0762 
     14 C14        30.0553   23.1217    4.8367 C.ar      12 UNK        -0.0782 
     15 C15        29.2869   25.4459    5.4595 C.3       12 UNK         0.0230 
     16 S16        28.6782   26.0146    3.8439 S.3       12 UNK        -0.2608 
     17 C17        27.5857   27.3703    4.3770 C.3       12 UNK        -0.0989 
     18 CA         28.0901   28.7351    3.8511 C.3       5 UNK         0.0716 
     19 N          27.9015   28.8364    2.3988 N.am      5 UNK        -0.4135 
     20 C          28.0019   29.9051    1.5959 C.2       4 UNK         0.5031 
     21 O          28.1999   31.0614    1.9801 O.2       4 UNK        -0.5229 
     22 CA         27.9045   29.6152    0.0844 C.3       4 UNK         0.0329 
     23 CB         27.9957   30.8962   -0.7663 C.3       4 UNK        -0.2001 
     24 N          28.9507   28.6845   -0.3533 N.am      4 UNK        -0.4303 
     25 C          28.9360   27.3579   -0.1714 C.2       3 UNK         0.5044 
     26 O          28.0071   26.7550    0.3711 O.2       3 UNK        -0.5152 
     27 CA         30.2025   26.5981   -0.6036 C.3       3 UNK         0.0319 
     28 CB         31.1907   26.5096    0.5724 C.3       3 UNK        -0.2001 
     29 N          29.9154   25.2464   -1.0907 N.am      3 UNK        -0.4354 
     30 C          29.2056   24.9594   -2.1919 C.2       2 UNK         0.4964 
     31 O          28.7346   25.8191   -2.9386 O.2       2 UNK        -0.5047 
     32 CA         29.0109   23.4743   -2.5593 C.3       2 UNK         0.0288 
     33 CB         29.7386   23.1457   -3.8751 C.3       2 UNK        -0.2113 
     34 N          29.4600   22.5296   -1.5301 N.am      2 UNK        -0.4145 
     35 C          28.7556   22.1957   -0.4402 C.2       1 UNK         0.5006 
     36 O          27.6660   22.6965   -0.1495 O.2       1 UNK        -0.5103 
     37 C          27.4501   29.8899    4.6417 C.2       5 UNK         0.5055 
     38 O          26.2380   29.8789    4.8640 O.2       5 UNK        -0.5220 
     39 N          28.2869   30.8641    5.0261 N.am      6 UNK        -0.4450 
     40 CA         27.9865   32.0835    5.7904 C.3       6 UNK         0.0367 
     41 CB         27.3972   31.7454    7.1754 C.3       6 UNK        -0.1929 
     42 C          27.1249   33.1236    5.0460 C.2       6 UNK         0.5070 
     43 O          26.9548   34.2308    5.5581 O.2       6 UNK        -0.5237 
     44 N          26.6246   32.7848    3.8518 N.am      7 UNK        -0.4739 
     45 CA         25.9351   33.6965    2.9423 C.3       7 UNK         0.0276 
     46 CB         25.0489   32.8885    1.9805 C.3       7 UNK        -0.1927 
     47 C          26.9432   34.5553    2.1670 C.2       7 UNK         0.5013 
     48 O          26.6983   35.7472    1.9748 O.2       7 UNK        -0.5193 
     49 N          28.0619   33.9403    1.7594 N.am      8 UNK        -0.4253 
     50 CA         29.1638   34.6055    1.0645 C.3       8 UNK         0.0242 
     51 CB         28.8265   34.7642   -0.4316 C.3       8 UNK        -0.2000 
     52 C          30.5239   33.9113    1.2454 C.2       8 UNK         0.4948 
     53 O          31.5370   34.5486    0.9513 O.2       8 UNK        -0.5275 
     54 N          30.5617   32.6445    1.6862 N.am      9 UNK        -0.4246 
     55 CA         31.7844   31.8422    1.7430 C.3       9 UNK         0.0261 
     56 CB         32.0623   31.2462    0.3433 C.3       9 UNK        -0.1959 
     57 C          31.6969   30.7563    2.8278 C.2       9 UNK         0.5033 
     58 O          30.7752   30.7552    3.6471 O.2       9 UNK        -0.5390 
     59 N          32.6767   29.8510    2.7936 N.am      10 UNK        -0.4215 
     60 CA         32.8301   28.6257    3.5694 C.3       10 UNK         0.0240 
     61 CB         33.2539   28.9473    5.0150 C.3       10 UNK        -0.1982 
     62 C          33.8877   27.7855    2.8320 C.2       10 UNK         0.4970 
     63 O          34.4932   28.2834    1.8766 O.2       10 UNK        -0.4916 
     64 N          34.0932   26.5346    3.2621 N.am      11 UNK        -0.4279 
     65 CA         35.0433   25.6003    2.6299 C.3       11 UNK         0.1003 
     66 C          36.5548   25.9620    2.7644 C.2       11 UNK         0.5709 
     67 N          36.9432   26.8858    3.6360 N.am      11 UNK        -0.7358 
     68 O          37.3855   25.4009    2.0536 O.2       11 UNK        -0.4999 
     69 C69        34.7281   24.1241    2.9957 C.3       12 UNK        -0.0954 
     70 S70        35.3771   23.5296    4.6020 S.3       12 UNK        -0.2268 
     71 C71        34.1469   24.1144    5.8156 C.3       12 UNK         0.0203 
     72 H72        26.7117   17.6914    1.5415 H         1 UNK         0.0888 
     73 H73        26.5473   19.1605    2.5047 H         1 UNK         0.0888 
     74 H74        25.5522   18.9353    1.0649 H         1 UNK         0.0888 
     75 H75        28.1917   20.6337    2.1419 H         1 UNK         0.3017 
     76 H76        29.9604   20.4480   -0.1437 H         1 UNK         0.0873 
     77 H77        31.1078   22.4236    0.9392 H         1 UNK         0.0745 
     78 H78        29.8557   22.4808    2.1473 H         1 UNK         0.0745 
     79 H79        31.1471   20.0147    4.7557 H         1 UNK         0.0705 
     80 H80        29.6330   20.6129    4.1252 H         1 UNK         0.0705 
     81 H81        33.1414   21.7166    4.9064 H         1 UNK         0.1334 
     82 H82        31.9468   25.6995    5.9732 H         1 UNK         0.1417 
     83 H83        29.0303   22.8905    4.5795 H         1 UNK         0.1562 
     84 H84        29.6587   26.3008    6.0271 H         1 UNK         0.0748 
     85 H85        28.4589   25.0265    6.0333 H         1 UNK         0.0748 
     86 H86        27.5218   27.3686    5.4674 H         1 UNK         0.0940 
     87 H87        26.5726   27.1693    4.0228 H         1 UNK         0.0940 
     88 H88        29.1658   28.7759    4.0284 H         1 UNK         0.0703 
     89 H89        27.7676   27.9448    1.9306 H         1 UNK         0.3081 
     90 H90        26.9272   29.1627   -0.0974 H         1 UNK         0.0719 
     91 H91        28.9585   31.3932   -0.6452 H         1 UNK         0.0809 
     92 H92        27.8626   30.6783   -1.8260 H         1 UNK         0.0809 
     93 H93        27.2208   31.6108   -0.4863 H         1 UNK         0.0809 
     94 H94        29.7587   29.0995   -0.7931 H         1 UNK         0.2990 
     95 H95        30.6782   27.1490   -1.4178 H         1 UNK         0.0690 
     96 H96        32.1249   26.0321    0.2758 H         1 UNK         0.0788 
     97 H97        30.7746   25.9455    1.4088 H         1 UNK         0.0788 
     98 H98        31.4415   27.5037    0.9443 H         1 UNK         0.0788 
     99 H99        30.2417   24.4811   -0.5219 H         1 UNK         0.2993 
    100 H100       27.9403   23.3276   -2.7200 H         1 UNK         0.0949 
    101 H101       30.8175   23.2785   -3.7842 H         1 UNK         0.0767 
    102 H102       29.5506   22.1180   -4.1871 H         1 UNK         0.0767 
    103 H103       29.3981   23.7930   -4.6848 H         1 UNK         0.0767 
    104 H104       30.3509   22.0814   -1.6930 H         1 UNK         0.3013 
    105 H105       29.2422   30.8096    4.6676 H         1 UNK         0.3121 
    106 H106       28.9520   32.5645    5.9544 H         1 UNK         0.0774 
    107 H107       27.3102   32.6418    7.7907 H         1 UNK         0.0815 
    108 H108       26.4003   31.3105    7.0993 H         1 UNK         0.0815 
    109 H109       28.0311   31.0431    7.7164 H         1 UNK         0.0815 
    110 H110       26.8448   31.8638    3.4939 H         1 UNK         0.2987 
    111 H111       25.2943   34.3646    3.5225 H         1 UNK         0.0949 
    112 H112       24.5163   33.5487    1.2946 H         1 UNK         0.0806 
    113 H113       25.6318   32.1922    1.3771 H         1 UNK         0.0806 
    114 H114       24.2996   32.3128    2.5239 H         1 UNK         0.0806 
    115 H115       28.1514   32.9440    1.9378 H         1 UNK         0.3010 
    116 H116       29.2828   35.6027    1.4943 H         1 UNK         0.0829 
    117 H117       27.9339   35.3726   -0.5778 H         1 UNK         0.0813 
    118 H118       29.6393   35.2560   -0.9678 H         1 UNK         0.0813 
    119 H119       28.6560   33.8008   -0.9110 H         1 UNK         0.0813 
    120 H120       29.7176   32.1459    1.9562 H         1 UNK         0.3038 
    121 H121       32.6199   32.4864    2.0254 H         1 UNK         0.0769 
    122 H122       31.3067   30.5115    0.0662 H         1 UNK         0.0811 
    123 H123       33.0342   30.7545    0.2946 H         1 UNK         0.0811 
    124 H124       32.0694   32.0189   -0.4257 H         1 UNK         0.0811 
    125 H125       33.3853   29.9216    2.0704 H         1 UNK         0.3204 
    126 H126       31.8833   28.0812    3.5670 H         1 UNK         0.0748 
    127 H127       33.3731   28.0388    5.6061 H         1 UNK         0.0771 
    128 H128       34.2016   29.4865    5.0452 H         1 UNK         0.0771 
    129 H129       32.5069   29.5603    5.5197 H         1 UNK         0.0771 
    130 H130       33.5692   26.1774    4.0452 H         1 UNK         0.2980 
    131 H131       34.8457   25.6779    1.5585 H         1 UNK         0.0545 
    132 H132       37.9220   27.1140    3.7088 H         1 UNK         0.3459 
    133 H133       36.2706   27.3525    4.2214 H         1 UNK         0.3459 
    134 H134       33.6555   23.9381    2.9319 H         1 UNK         0.0616 
    135 H135       35.1653   23.4760    2.2344 H         1 UNK         0.0616 
    136 H136       34.2588   25.1944    5.9205 H         1 UNK         0.0634 
    137 H137       34.3915   23.6870    6.7886 H         1 UNK         0.0634 
@<TRIPOS>BOND
     1    1    2 1    
     2    1   72 1    
     3    1   73 1    
     4    1   74 1    
     5    2    3 2    
     6    2    4 am   BACKBONE|DICT|INTERRES
     7    4    5 1    
     8    4   75 1    
     9    5    6 1    
    10    5   35 1    
    11    5   76 1    
    12    6    7 1    
    13    6   77 1    
    14    6   78 1    
    15    7    8 1    
    16    8    9 1    
    17    8   79 1    
    18    8   80 1    
    19    9   10 ar   
    20    9   14 ar   
    21   10   11 ar   
    22   10   81 1    
    23   11   12 ar   
    24   11   71 1    
    25   12   13 ar   
    26   12   82 1    
    27   13   14 ar   
    28   13   15 1    
    29   14   83 1    
    30   15   16 1    
    31   15   84 1    
    32   15   85 1    
    33   16   17 1    
    34   17   18 1    
    35   17   86 1    
    36   17   87 1    
    37   18   19 1    
    38   18   37 1    
    39   18   88 1    
    40   19   20 am   BACKBONE|DICT|INTERRES
    41   19   89 1    
    42   20   21 2    
    43   20   22 1    
    44   22   23 1    
    45   22   24 1    
    46   22   90 1    
    47   23   91 1    
    48   23   92 1    
    49   23   93 1    
    50   24   25 am   BACKBONE|DICT|INTERRES
    51   24   94 1    
    52   25   26 2    
    53   25   27 1    
    54   27   28 1    
    55   27   29 1    
    56   27   95 1    
    57   28   96 1    
    58   28   97 1    
    59   28   98 1    
    60   29   30 am   BACKBONE|DICT|INTERRES
    61   29   99 1    
    62   30   31 2    
    63   30   32 1    
    64   32   33 1    
    65   32   34 1    
    66   32  100 1    
    67   33  101 1    
    68   33  102 1    
    69   33  103 1    
    70   34   35 am   BACKBONE|DICT|INTERRES
    71   34  104 1    
    72   35   36 2    
    73   37   38 2    
    74   37   39 am   BACKBONE|DICT|INTERRES
    75   39   40 1    
    76   39  105 1    
    77   40   41 1    
    78   40   42 1    
    79   40  106 1    
    80   41  107 1    
    81   41  108 1    
    82   41  109 1    
    83   42   43 2    
    84   42   44 am   BACKBONE|DICT|INTERRES
    85   44   45 1    
    86   44  110 1    
    87   45   46 1    
    88   45   47 1    
    89   45  111 1    
    90   46  112 1    
    91   46  113 1    
    92   46  114 1    
    93   47   48 2    
    94   47   49 am   BACKBONE|DICT|INTERRES
    95   49   50 1    
    96   49  115 1    
    97   50   51 1    
    98   50   52 1    
    99   50  116 1    
   100   51  117 1    
   101   51  118 1    
   102   51  119 1    
   103   52   53 2    
   104   52   54 am   BACKBONE|DICT|INTERRES
   105   54   55 1    
   106   54  120 1    
   107   55   56 1    
   108   55   57 1    
   109   55  121 1    
   110   56  122 1    
   111   56  123 1    
   112   56  124 1    
   113   57   58 2    
   114   57   59 am   BACKBONE|DICT|INTERRES
   115   59   60 1    
   116   59  125 1    
   117   60   61 1    
   118   60   62 1    
   119   60  126 1    
   120   61  127 1    
   121   61  128 1    
   122   61  129 1    
   123   62   63 2    
   124   62   64 am   BACKBONE|DICT|INTERRES
   125   64   65 1    
   126   64  130 1    
   127   65   66 1    
   128   65   69 1    
   129   65  131 1    
   130   66   67 am   BACKBONE|DICT|INTERRES
   131   66   68 2    
   132   67  132 1    
   133   67  133 1    
   134   69   70 1    
   135   69  134 1    
   136   69  135 1    
   137   70   71 1    
   138   71  136 1    
   139   71  137 1    
@<TRIPOS>SUBSTRUCTURE
     1 UNK         1 GROUP             0       ****    0 ROOT    
