@<TRIPOS>MOLECULE
3R136
137   139    1
SMALL
USER_CHARGES


@<TRIPOS>ATOM
      1 CA         33.7291   23.1153   -0.2255 C.3       0 UNK        -0.1979 
      2 C          32.2795   23.2402    0.2170 C.2       0 UNK         0.4864 
      3 O          31.7556   24.3497    0.2891 O.2       0 UNK        -0.5359 
      4 N          31.6149   22.1125    0.4987 N.am      1 UNK        -0.4318 
      5 CA         30.2557   22.0413    1.0597 C.3       1 UNK         0.0824 
      6 C6         30.0125   20.7178    1.8353 C.3       12 UNK        -0.0944 
      7 S7         31.2950   20.3806    3.0923 S.3       12 UNK        -0.2672 
      8 C8         30.5144   21.0039    4.6200 C.3       12 UNK         0.0333 
      9 C9         30.1939   22.4943    4.5660 C.ar      12 UNK        -0.0807 
     10 C10        31.1791   23.4220    4.2131 C.ar      12 UNK        -0.0894 
     11 C11        30.8770   24.7831    4.1379 C.ar      12 UNK        -0.0804 
     12 C12        29.5941   25.2225    4.4735 C.ar      12 UNK        -0.0824 
     13 C13        28.5924   24.3107    4.8297 C.ar      12 UNK        -0.0762 
     14 C14        28.9054   22.9467    4.8699 C.ar      12 UNK        -0.0782 
     15 C15        27.1795   24.7624    5.2092 C.3       12 UNK         0.0230 
     16 S16        26.4714   26.0705    4.1432 S.3       12 UNK        -0.2608 
     17 C17        27.0740   27.5900    4.9725 C.3       12 UNK        -0.0989 
     18 CA         27.7762   28.6280    4.0478 C.3       5 UNK         0.0716 
     19 N          28.3366   28.0460    2.8258 N.am      5 UNK        -0.4135 
     20 C          29.1591   28.6555    1.9644 C.2       4 UNK         0.5031 
     21 O          29.7259   29.7210    2.2129 O.2       4 UNK        -0.5229 
     22 CA         29.3391   28.0065    0.5774 C.3       4 UNK         0.0329 
     23 CB         30.7875   27.5537    0.3614 C.3       4 UNK        -0.2001 
     24 N          28.4311   26.8857    0.2902 N.am      4 UNK        -0.4303 
     25 C          27.0983   26.9822    0.1634 C.2       3 UNK         0.5044 
     26 O          26.4862   28.0323    0.3617 O.2       3 UNK        -0.5152 
     27 CA         26.3055   25.7026   -0.1762 C.3       3 UNK         0.0319 
     28 CB         25.0849   25.9991   -1.0729 C.3       3 UNK        -0.2001 
     29 N          27.1064   24.6035   -0.7331 N.am      3 UNK        -0.4354 
     30 C          27.7981   24.5792   -1.8820 C.2       2 UNK         0.4964 
     31 O          27.8866   25.5388   -2.6493 O.2       2 UNK        -0.5047 
     32 CA         28.5321   23.2598   -2.2047 C.3       2 UNK         0.0288 
     33 CB         29.3080   23.3207   -3.5346 C.3       2 UNK        -0.2113 
     34 N          29.4604   22.8702   -1.1391 N.am      2 UNK        -0.4145 
     35 C          29.1279   22.3214    0.0382 C.2       1 UNK         0.5006 
     36 O          27.9604   22.0612    0.3398 O.2       1 UNK        -0.5103 
     37 C          26.8913   29.8596    3.7566 C.2       5 UNK         0.5055 
     38 O          26.9003   30.7938    4.5592 O.2       5 UNK        -0.5220 
     39 N          26.2121   29.8914    2.5979 N.am      6 UNK        -0.4450 
     40 CA         25.4585   31.0565    2.1180 C.3       6 UNK         0.0367 
     41 CB         24.5498   30.6363    0.9521 C.3       6 UNK        -0.1929 
     42 C          26.3626   32.2324    1.6984 C.2       6 UNK         0.5070 
     43 O          25.8965   33.3710    1.6759 O.2       6 UNK        -0.5237 
     44 N          27.6400   31.9485    1.4090 N.am      7 UNK        -0.4739 
     45 CA         28.6884   32.9245    1.1043 C.3       7 UNK         0.0276 
     46 CB         29.5509   32.3790   -0.0492 C.3       7 UNK        -0.1927 
     47 C          29.5304   33.2641    2.3521 C.2       7 UNK         0.5013 
     48 O          30.6958   33.6358    2.2122 O.2       7 UNK        -0.5193 
     49 N          28.9280   33.1316    3.5450 N.am      8 UNK        -0.4253 
     50 CA         29.5013   33.3822    4.8731 C.3       8 UNK         0.0242 
     51 CB         29.8757   34.8701    5.0491 C.3       8 UNK        -0.2000 
     52 C          30.6518   32.4182    5.2212 C.2       8 UNK         0.4948 
     53 O          31.6771   32.8475    5.7520 O.2       8 UNK        -0.5275 
     54 N          30.4356   31.1275    4.9286 N.am      9 UNK        -0.4246 
     55 CA         31.3363   29.9927    5.1678 C.3       9 UNK         0.0261 
     56 CB         31.5600   29.7617    6.6768 C.3       9 UNK        -0.1959 
     57 C          32.6416   30.1084    4.3672 C.2       9 UNK         0.5033 
     58 O          33.7342   30.0052    4.9295 O.2       9 UNK        -0.5390 
     59 N          32.5042   30.2836    3.0471 N.am      10 UNK        -0.4215 
     60 CA         33.6104   30.3393    2.0862 C.3       10 UNK         0.0240 
     61 CB         33.1477   31.1161    0.8397 C.3       10 UNK        -0.1982 
     62 C          34.1471   28.9316    1.7490 C.2       10 UNK         0.4970 
     63 O          34.2234   28.5666    0.5751 O.2       10 UNK        -0.4916 
     64 N          34.4766   28.1535    2.7869 N.am      11 UNK        -0.4279 
     65 CA         34.8926   26.7459    2.6953 C.3       11 UNK         0.1003 
     66 C          36.3177   26.5155    2.1146 C.2       11 UNK         0.5709 
     67 N          37.1553   27.5363    1.9760 N.am      11 UNK        -0.7358 
     68 O          36.6659   25.3866    1.7780 O.2       11 UNK        -0.4999 
     69 C69        34.7204   25.9937    4.0480 C.3       12 UNK        -0.0954 
     70 S70        33.1225   26.2264    4.9077 S.3       12 UNK        -0.2268 
     71 C71        31.9199   25.7650    3.6302 C.3       12 UNK         0.0203 
     72 H72        34.0746   22.0802   -0.2063 H         1 UNK         0.0888 
     73 H73        33.8453   23.4965   -1.2408 H         1 UNK         0.0888 
     74 H74        34.3717   23.6998    0.4349 H         1 UNK         0.0888 
     75 H75        32.0884   21.2244    0.4098 H         1 UNK         0.3017 
     76 H76        30.1652   22.8560    1.7783 H         1 UNK         0.0873 
     77 H77        29.0386   20.7287    2.3286 H         1 UNK         0.0745 
     78 H78        29.9911   19.8738    1.1436 H         1 UNK         0.0745 
     79 H79        29.6155   20.4176    4.8171 H         1 UNK         0.0705 
     80 H80        31.1894   20.8220    5.4572 H         1 UNK         0.0705 
     81 H81        32.1735   23.0803    3.9597 H         1 UNK         0.1334 
     82 H82        29.3839   26.2778    4.4426 H         1 UNK         0.1417 
     83 H83        28.1427   22.2320    5.1487 H         1 UNK         0.1562 
     84 H84        27.1723   25.0846    6.2511 H         1 UNK         0.0748 
     85 H85        26.4985   23.9114    5.1586 H         1 UNK         0.0748 
     86 H86        27.7714   27.3027    5.7606 H         1 UNK         0.0940 
     87 H87        26.2343   28.0327    5.5129 H         1 UNK         0.0940 
     88 H88        28.6182   29.0170    4.6170 H         1 UNK         0.0703 
     89 H89        27.9207   27.1693    2.5445 H         1 UNK         0.3081 
     90 H90        29.1258   28.7899   -0.1529 H         1 UNK         0.0719 
     91 H91        31.0578   26.7362    1.0256 H         1 UNK         0.0809 
     92 H92        30.9513   27.2158   -0.6618 H         1 UNK         0.0809 
     93 H93        31.4843   28.3699    0.5437 H         1 UNK         0.0809 
     94 H94        28.8616   25.9882    0.1208 H         1 UNK         0.2990 
     95 H95        25.9257   25.3349    0.7784 H         1 UNK         0.0690 
     96 H96        24.5136   25.0939   -1.2781 H         1 UNK         0.0788 
     97 H97        25.3810   26.4339   -2.0282 H         1 UNK         0.0788 
     98 H98        24.4060   26.7052   -0.5927 H         1 UNK         0.0788 
     99 H99        27.1334   23.7534   -0.1753 H         1 UNK         0.2993 
    100 H100       27.7673   22.4856   -2.3020 H         1 UNK         0.0949 
    101 H101       29.7706   22.3614   -3.7682 H         1 UNK         0.0767 
    102 H102       28.6443   23.5677   -4.3645 H         1 UNK         0.0767 
    103 H103       30.0950   24.0759   -3.5090 H         1 UNK         0.0767 
    104 H104       30.4304   23.1213   -1.2729 H         1 UNK         0.3013 
    105 H105       26.2770   29.1062    1.9537 H         1 UNK         0.3121 
    106 H106       24.8232   31.4071    2.9341 H         1 UNK         0.0774 
    107 H107       25.1278   30.3210    0.0828 H         1 UNK         0.0815 
    108 H108       23.9149   31.4649    0.6359 H         1 UNK         0.0815 
    109 H109       23.8929   29.8136    1.2346 H         1 UNK         0.0815 
    110 H110       27.9507   30.9904    1.4966 H         1 UNK         0.2987 
    111 H111       28.2362   33.8600    0.7683 H         1 UNK         0.0949 
    112 H112       30.0691   31.4632    0.2331 H         1 UNK         0.0806 
    113 H113       28.9445   32.1624   -0.9285 H         1 UNK         0.0806 
    114 H114       30.3089   33.1024   -0.3523 H         1 UNK         0.0806 
    115 H115       27.9743   32.7944    3.5443 H         1 UNK         0.3010 
    116 H116       28.7058   33.1636    5.5876 H         1 UNK         0.0829 
    117 H117       30.7107   35.1583    4.4098 H         1 UNK         0.0813 
    118 H118       29.0337   35.5219    4.8167 H         1 UNK         0.0813 
    119 H119       30.1706   35.0783    6.0782 H         1 UNK         0.0813 
    120 H120       29.5848   30.9118    4.4294 H         1 UNK         0.3038 
    121 H121       30.8424   29.1022    4.7812 H         1 UNK         0.0769 
    122 H122       32.1429   28.8557    6.8472 H         1 UNK         0.0811 
    123 H123       32.1024   30.5861    7.1398 H         1 UNK         0.0811 
    124 H124       30.6140   29.6423    7.2046 H         1 UNK         0.0811 
    125 H125       31.5626   30.3021    2.6640 H         1 UNK         0.3204 
    126 H126       34.4352   30.8974    2.5340 H         1 UNK         0.0748 
    127 H127       33.9650   31.2370    0.1276 H         1 UNK         0.0771 
    128 H128       32.3365   30.6051    0.3216 H         1 UNK         0.0771 
    129 H129       32.7986   32.1149    1.1027 H         1 UNK         0.0771 
    130 H130       34.3892   28.5413    3.7206 H         1 UNK         0.2980 
    131 H131       34.2283   26.2777    1.9687 H         1 UNK         0.0545 
    132 H132       38.0735   27.3734    1.5947 H         1 UNK         0.3459 
    133 H133       36.8780   28.4651    2.2482 H         1 UNK         0.3459 
    134 H134       34.8589   24.9215    3.9000 H         1 UNK         0.0616 
    135 H135       35.5007   26.3029    4.7447 H         1 UNK         0.0616 
    136 H136       32.4189   25.3144    2.7749 H         1 UNK         0.0634 
    137 H137       31.4466   26.6771    3.2697 H         1 UNK         0.0634 
@<TRIPOS>BOND
     1    1    2 1    
     2    1   72 1    
     3    1   73 1    
     4    1   74 1    
     5    2    3 2    
     6    2    4 am   BACKBONE|DICT|INTERRES
     7    4    5 1    
     8    4   75 1    
     9    5    6 1    
    10    5   35 1    
    11    5   76 1    
    12    6    7 1    
    13    6   77 1    
    14    6   78 1    
    15    7    8 1    
    16    8    9 1    
    17    8   79 1    
    18    8   80 1    
    19    9   10 ar   
    20    9   14 ar   
    21   10   11 ar   
    22   10   81 1    
    23   11   12 ar   
    24   11   71 1    
    25   12   13 ar   
    26   12   82 1    
    27   13   14 ar   
    28   13   15 1    
    29   14   83 1    
    30   15   16 1    
    31   15   84 1    
    32   15   85 1    
    33   16   17 1    
    34   17   18 1    
    35   17   86 1    
    36   17   87 1    
    37   18   19 1    
    38   18   37 1    
    39   18   88 1    
    40   19   20 am   BACKBONE|DICT|INTERRES
    41   19   89 1    
    42   20   21 2    
    43   20   22 1    
    44   22   23 1    
    45   22   24 1    
    46   22   90 1    
    47   23   91 1    
    48   23   92 1    
    49   23   93 1    
    50   24   25 am   BACKBONE|DICT|INTERRES
    51   24   94 1    
    52   25   26 2    
    53   25   27 1    
    54   27   28 1    
    55   27   29 1    
    56   27   95 1    
    57   28   96 1    
    58   28   97 1    
    59   28   98 1    
    60   29   30 am   BACKBONE|DICT|INTERRES
    61   29   99 1    
    62   30   31 2    
    63   30   32 1    
    64   32   33 1    
    65   32   34 1    
    66   32  100 1    
    67   33  101 1    
    68   33  102 1    
    69   33  103 1    
    70   34   35 am   BACKBONE|DICT|INTERRES
    71   34  104 1    
    72   35   36 2    
    73   37   38 2    
    74   37   39 am   BACKBONE|DICT|INTERRES
    75   39   40 1    
    76   39  105 1    
    77   40   41 1    
    78   40   42 1    
    79   40  106 1    
    80   41  107 1    
    81   41  108 1    
    82   41  109 1    
    83   42   43 2    
    84   42   44 am   BACKBONE|DICT|INTERRES
    85   44   45 1    
    86   44  110 1    
    87   45   46 1    
    88   45   47 1    
    89   45  111 1    
    90   46  112 1    
    91   46  113 1    
    92   46  114 1    
    93   47   48 2    
    94   47   49 am   BACKBONE|DICT|INTERRES
    95   49   50 1    
    96   49  115 1    
    97   50   51 1    
    98   50   52 1    
    99   50  116 1    
   100   51  117 1    
   101   51  118 1    
   102   51  119 1    
   103   52   53 2    
   104   52   54 am   BACKBONE|DICT|INTERRES
   105   54   55 1    
   106   54  120 1    
   107   55   56 1    
   108   55   57 1    
   109   55  121 1    
   110   56  122 1    
   111   56  123 1    
   112   56  124 1    
   113   57   58 2    
   114   57   59 am   BACKBONE|DICT|INTERRES
   115   59   60 1    
   116   59  125 1    
   117   60   61 1    
   118   60   62 1    
   119   60  126 1    
   120   61  127 1    
   121   61  128 1    
   122   61  129 1    
   123   62   63 2    
   124   62   64 am   BACKBONE|DICT|INTERRES
   125   64   65 1    
   126   64  130 1    
   127   65   66 1    
   128   65   69 1    
   129   65  131 1    
   130   66   67 am   BACKBONE|DICT|INTERRES
   131   66   68 2    
   132   67  132 1    
   133   67  133 1    
   134   69   70 1    
   135   69  134 1    
   136   69  135 1    
   137   70   71 1    
   138   71  136 1    
   139   71  137 1    
@<TRIPOS>SUBSTRUCTURE
     1 UNK         1 GROUP             0       ****    0 ROOT    
