@<TRIPOS>MOLECULE
3R136
137   139    1
SMALL
USER_CHARGES


@<TRIPOS>ATOM
      1 CA         33.1489   25.4165   -1.3646 C.3       0 UNK        -0.1979 
      2 C          31.8947   24.5567   -1.4102 C.2       0 UNK         0.4864 
      3 O          31.5971   23.9668   -2.4495 O.2       0 UNK        -0.5359 
      4 N          31.1501   24.5029   -0.2968 N.am      1 UNK        -0.4318 
      5 CA         29.9248   23.7254   -0.0369 C.3       1 UNK         0.0824 
      6 C6         30.0916   22.1856   -0.1741 C.3       12 UNK        -0.0944 
      7 S7         31.5857   21.4900    0.6139 S.3       12 UNK        -0.2672 
      8 C8         31.1320   21.4493    2.3822 C.3       12 UNK         0.0333 
      9 C9         31.2845   22.7890    3.1027 C.ar      12 UNK        -0.0807 
     10 C10        32.3180   23.6792    2.7850 C.ar      12 UNK        -0.0894 
     11 C11        32.4525   24.8931    3.4637 C.ar      12 UNK        -0.0804 
     12 C12        31.5485   25.2146    4.4818 C.ar      12 UNK        -0.0824 
     13 C13        30.5485   24.3108    4.8521 C.ar      12 UNK        -0.0762 
     14 C14        30.4126   23.1096    4.1482 C.ar      12 UNK        -0.0782 
     15 C15        29.6670   24.5838    6.0634 C.3       12 UNK         0.0230 
     16 S16        27.9468   24.9602    5.6063 S.3       12 UNK        -0.2608 
     17 C17        27.8750   26.7839    5.7247 C.3       12 UNK        -0.0989 
     18 CA         27.7799   27.4866    4.3482 C.3       5 UNK         0.0716 
     19 N          26.7524   26.8734    3.4952 N.am      5 UNK        -0.4135 
     20 C          26.5378   27.1334    2.2004 C.2       4 UNK         0.5031 
     21 O          27.1635   27.9869    1.5686 O.2       4 UNK        -0.5229 
     22 CA         25.4257   26.2994    1.5397 C.3       4 UNK         0.0329 
     23 CB         24.0551   26.5291    2.2149 C.3       4 UNK        -0.2001 
     24 N          25.3382   26.4838    0.0875 N.am      4 UNK        -0.4303 
     25 C          24.9392   27.5649   -0.6028 C.2       3 UNK         0.5044 
     26 O          24.5268   28.6040   -0.0844 O.2       3 UNK        -0.5152 
     27 CA         24.9518   27.4371   -2.1438 C.3       3 UNK         0.0319 
     28 CB         25.1860   28.7785   -2.8720 C.3       3 UNK        -0.2001 
     29 N          25.8532   26.3911   -2.6500 N.am      3 UNK        -0.4354 
     30 C          27.1884   26.3450   -2.5295 C.2       2 UNK         0.4964 
     31 O          27.8813   27.2423   -2.0462 O.2       2 UNK        -0.5047 
     32 CA         27.8593   25.0581   -3.0361 C.3       2 UNK         0.0288 
     33 CB         28.5021   25.2894   -4.4131 C.3       2 UNK        -0.2113 
     34 N          28.8775   24.5629   -2.1091 N.am      2 UNK        -0.4145 
     35 C          28.6873   24.2030   -0.8323 C.2       1 UNK         0.5006 
     36 O          27.5858   24.2204   -0.2784 O.2       1 UNK        -0.5103 
     37 C          27.6022   29.0119    4.5358 C.2       5 UNK         0.5055 
     38 O          28.5486   29.6829    4.9450 O.2       5 UNK        -0.5220 
     39 N          26.4038   29.5375    4.2388 N.am      6 UNK        -0.4450 
     40 CA         26.1124   30.9710    4.1863 C.3       6 UNK         0.0367 
     41 CB         24.5919   31.1797    4.1010 C.3       6 UNK        -0.1929 
     42 C          26.8208   31.6730    3.0132 C.2       6 UNK         0.5070 
     43 O          27.2354   32.8224    3.1641 O.2       6 UNK        -0.5237 
     44 N          26.9566   30.9733    1.8776 N.am      7 UNK        -0.4739 
     45 CA         27.7289   31.4239    0.7207 C.3       7 UNK         0.0276 
     46 CB         27.1065   30.8657   -0.5673 C.3       7 UNK        -0.1927 
     47 C          29.1881   30.9747    0.8580 C.2       7 UNK         0.5013 
     48 O          30.0957   31.7969    0.7231 O.2       7 UNK        -0.5193 
     49 N          29.3928   29.6877    1.1714 N.am      8 UNK        -0.4253 
     50 CA         30.6962   29.0729    1.4231 C.3       8 UNK         0.0242 
     51 CB         30.5972   27.5600    1.1546 C.3       8 UNK        -0.2000 
     52 C          31.2067   29.3990    2.8399 C.2       8 UNK         0.4948 
     53 O          31.4486   28.4947    3.6383 O.2       8 UNK        -0.5275 
     54 N          31.3639   30.6960    3.1297 N.am      9 UNK        -0.4246 
     55 CA         31.8109   31.2171    4.4247 C.3       9 UNK         0.0261 
     56 CB         31.4243   32.7017    4.5218 C.3       9 UNK        -0.1959 
     57 C          33.3183   31.0305    4.6806 C.2       9 UNK         0.5033 
     58 O          33.7510   31.1488    5.8280 O.2       9 UNK        -0.5390 
     59 N          34.0910   30.7439    3.6216 N.am      10 UNK        -0.4215 
     60 CA         35.5518   30.5980    3.6217 C.3       10 UNK         0.0240 
     61 CB         36.0262   30.3278    2.1841 C.3       10 UNK        -0.1982 
     62 C          36.1062   29.5226    4.5751 C.2       10 UNK         0.4970 
     63 O          37.2517   29.6480    5.0102 O.2       10 UNK        -0.4916 
     64 N          35.2973   28.5029    4.8886 N.am      11 UNK        -0.4279 
     65 CA         35.6195   27.4638    5.8793 C.3       11 UNK         0.1003 
     66 C          35.4815   27.9331    7.3589 C.2       11 UNK         0.5709 
     67 N          34.9359   29.1100    7.6482 N.am      11 UNK        -0.7358 
     68 O          35.8911   27.2145    8.2676 O.2       11 UNK        -0.4999 
     69 C69        34.8183   26.1592    5.6309 C.3       12 UNK        -0.0954 
     70 S70        35.1264   25.4374    3.9820 S.3       12 UNK        -0.2268 
     71 C71        33.5880   25.8398    3.0980 C.3       12 UNK         0.0203 
     72 H72        33.1320   26.1472   -2.1728 H         1 UNK         0.0888 
     73 H73        33.2422   25.9573   -0.4235 H         1 UNK         0.0888 
     74 H74        34.0338   24.7925   -1.4875 H         1 UNK         0.0888 
     75 H75        31.4641   25.0293    0.5046 H         1 UNK         0.3017 
     76 H76        29.6903   23.9281    1.0093 H         1 UNK         0.0873 
     77 H77        30.1364   21.9071   -1.2288 H         1 UNK         0.0745 
     78 H78        29.2168   21.6731    0.2308 H         1 UNK         0.0745 
     79 H79        30.1119   21.0739    2.4770 H         1 UNK         0.0705 
     80 H80        31.7741   20.7234    2.8823 H         1 UNK         0.0705 
     81 H81        33.0291   23.4272    2.0104 H         1 UNK         0.1334 
     82 H82        31.6436   26.1534    5.0095 H         1 UNK         0.1417 
     83 H83        29.6371   22.4121    4.4356 H         1 UNK         0.1562 
     84 H84        30.0861   25.3786    6.6816 H         1 UNK         0.0748 
     85 H85        29.6627   23.6948    6.6959 H         1 UNK         0.0748 
     86 H86        28.7403   27.1559    6.2764 H         1 UNK         0.0940 
     87 H87        27.0058   27.0320    6.3375 H         1 UNK         0.0940 
     88 H88        28.7368   27.3472    3.8421 H         1 UNK         0.0703 
     89 H89        26.2176   26.1386    3.9359 H         1 UNK         0.3081 
     90 H90        25.6989   25.2524    1.6811 H         1 UNK         0.0719 
     91 H91        23.7703   27.5818    2.2154 H         1 UNK         0.0809 
     92 H92        23.2670   25.9722    1.7077 H         1 UNK         0.0809 
     93 H93        24.0596   26.1959    3.2530 H         1 UNK         0.0809 
     94 H94        25.7180   25.7149   -0.4488 H         1 UNK         0.2990 
     95 H95        23.9449   27.1084   -2.4049 H         1 UNK         0.0690 
     96 H96        25.0621   28.6668   -3.9490 H         1 UNK         0.0788 
     97 H97        26.1857   29.1719   -2.6942 H         1 UNK         0.0788 
     98 H98        24.4743   29.5373   -2.5445 H         1 UNK         0.0788 
     99 H99        25.3895   25.6007   -3.0778 H         1 UNK         0.2993 
    100 H100       27.1031   24.2762   -3.1322 H         1 UNK         0.0949 
    101 H101       28.9375   24.3710   -4.8077 H         1 UNK         0.0767 
    102 H102       27.7636   25.6359   -5.1374 H         1 UNK         0.0767 
    103 H103       29.2916   26.0410   -4.3658 H         1 UNK         0.0767 
    104 H104       29.8269   24.4805   -2.4656 H         1 UNK         0.3013 
    105 H105       25.6729   28.9125    3.9338 H         1 UNK         0.3121 
    106 H106       26.4707   31.4259    5.1124 H         1 UNK         0.0774 
    107 H107       24.1713   30.7327    3.1991 H         1 UNK         0.0815 
    108 H108       24.3463   32.2425    4.0821 H         1 UNK         0.0815 
    109 H109       24.0820   30.7465    4.9617 H         1 UNK         0.0815 
    110 H110       26.6277   30.0146    1.8468 H         1 UNK         0.2987 
    111 H111       27.7094   32.5146    0.6629 H         1 UNK         0.0949 
    112 H112       26.0679   31.1786   -0.6755 H         1 UNK         0.0806 
    113 H113       27.1285   29.7753   -0.5842 H         1 UNK         0.0806 
    114 H114       27.6475   31.2161   -1.4471 H         1 UNK         0.0806 
    115 H115       28.5804   29.0814    1.2813 H         1 UNK         0.3010 
    116 H116       31.4195   29.4846    0.7159 H         1 UNK         0.0829 
    117 H117       31.5685   27.0832    1.2811 H         1 UNK         0.0813 
    118 H118       30.2624   27.3614    0.1358 H         1 UNK         0.0813 
    119 H119       29.9007   27.0691    1.8341 H         1 UNK         0.0813 
    120 H120       31.1049   31.3716    2.4170 H         1 UNK         0.3038 
    121 H121       31.2795   30.6752    5.2103 H         1 UNK         0.0769 
    122 H122       31.9140   33.2986    3.7514 H         1 UNK         0.0811 
    123 H123       31.7096   33.1177    5.4891 H         1 UNK         0.0811 
    124 H124       30.3470   32.8361    4.4178 H         1 UNK         0.0811 
    125 H125       33.6335   30.6718    2.7251 H         1 UNK         0.3204 
    126 H126       35.9684   31.5540    3.9452 H         1 UNK         0.0748 
    127 H127       37.1131   30.2434    2.1400 H         1 UNK         0.0771 
    128 H128       35.6116   29.3986    1.7905 H         1 UNK         0.0771 
    129 H129       35.7405   31.1367    1.5112 H         1 UNK         0.0771 
    130 H130       34.3646   28.4847    4.5050 H         1 UNK         0.2980 
    131 H131       36.6749   27.2130    5.7554 H         1 UNK         0.0545 
    132 H132       34.8650   29.3902    8.6131 H         1 UNK         0.3459 
    133 H133       34.5939   29.7301    6.9211 H         1 UNK         0.3459 
    134 H134       33.7541   26.3405    5.7730 H         1 UNK         0.0616 
    135 H135       35.0925   25.3987    6.3642 H         1 UNK         0.0616 
    136 H136       33.7817   25.7831    2.0264 H         1 UNK         0.0634 
    137 H137       33.3184   26.8738    3.3007 H         1 UNK         0.0634 
@<TRIPOS>BOND
     1    1    2 1    
     2    1   72 1    
     3    1   73 1    
     4    1   74 1    
     5    2    3 2    
     6    2    4 am   BACKBONE|DICT|INTERRES
     7    4    5 1    
     8    4   75 1    
     9    5    6 1    
    10    5   35 1    
    11    5   76 1    
    12    6    7 1    
    13    6   77 1    
    14    6   78 1    
    15    7    8 1    
    16    8    9 1    
    17    8   79 1    
    18    8   80 1    
    19    9   10 ar   
    20    9   14 ar   
    21   10   11 ar   
    22   10   81 1    
    23   11   12 ar   
    24   11   71 1    
    25   12   13 ar   
    26   12   82 1    
    27   13   14 ar   
    28   13   15 1    
    29   14   83 1    
    30   15   16 1    
    31   15   84 1    
    32   15   85 1    
    33   16   17 1    
    34   17   18 1    
    35   17   86 1    
    36   17   87 1    
    37   18   19 1    
    38   18   37 1    
    39   18   88 1    
    40   19   20 am   BACKBONE|DICT|INTERRES
    41   19   89 1    
    42   20   21 2    
    43   20   22 1    
    44   22   23 1    
    45   22   24 1    
    46   22   90 1    
    47   23   91 1    
    48   23   92 1    
    49   23   93 1    
    50   24   25 am   BACKBONE|DICT|INTERRES
    51   24   94 1    
    52   25   26 2    
    53   25   27 1    
    54   27   28 1    
    55   27   29 1    
    56   27   95 1    
    57   28   96 1    
    58   28   97 1    
    59   28   98 1    
    60   29   30 am   BACKBONE|DICT|INTERRES
    61   29   99 1    
    62   30   31 2    
    63   30   32 1    
    64   32   33 1    
    65   32   34 1    
    66   32  100 1    
    67   33  101 1    
    68   33  102 1    
    69   33  103 1    
    70   34   35 am   BACKBONE|DICT|INTERRES
    71   34  104 1    
    72   35   36 2    
    73   37   38 2    
    74   37   39 am   BACKBONE|DICT|INTERRES
    75   39   40 1    
    76   39  105 1    
    77   40   41 1    
    78   40   42 1    
    79   40  106 1    
    80   41  107 1    
    81   41  108 1    
    82   41  109 1    
    83   42   43 2    
    84   42   44 am   BACKBONE|DICT|INTERRES
    85   44   45 1    
    86   44  110 1    
    87   45   46 1    
    88   45   47 1    
    89   45  111 1    
    90   46  112 1    
    91   46  113 1    
    92   46  114 1    
    93   47   48 2    
    94   47   49 am   BACKBONE|DICT|INTERRES
    95   49   50 1    
    96   49  115 1    
    97   50   51 1    
    98   50   52 1    
    99   50  116 1    
   100   51  117 1    
   101   51  118 1    
   102   51  119 1    
   103   52   53 2    
   104   52   54 am   BACKBONE|DICT|INTERRES
   105   54   55 1    
   106   54  120 1    
   107   55   56 1    
   108   55   57 1    
   109   55  121 1    
   110   56  122 1    
   111   56  123 1    
   112   56  124 1    
   113   57   58 2    
   114   57   59 am   BACKBONE|DICT|INTERRES
   115   59   60 1    
   116   59  125 1    
   117   60   61 1    
   118   60   62 1    
   119   60  126 1    
   120   61  127 1    
   121   61  128 1    
   122   61  129 1    
   123   62   63 2    
   124   62   64 am   BACKBONE|DICT|INTERRES
   125   64   65 1    
   126   64  130 1    
   127   65   66 1    
   128   65   69 1    
   129   65  131 1    
   130   66   67 am   BACKBONE|DICT|INTERRES
   131   66   68 2    
   132   67  132 1    
   133   67  133 1    
   134   69   70 1    
   135   69  134 1    
   136   69  135 1    
   137   70   71 1    
   138   71  136 1    
   139   71  137 1    
@<TRIPOS>SUBSTRUCTURE
     1 UNK         1 GROUP             0       ****    0 ROOT    
