@<TRIPOS>MOLECULE
3R136
137   139    1
SMALL
USER_CHARGES


@<TRIPOS>ATOM
      1 CA         26.7586   23.2891   -2.6289 C.3       0 UNK        -0.1979 
      2 C          27.2802   23.1477   -1.2074 C.2       0 UNK         0.4864 
      3 O          26.5236   22.7432   -0.3228 O.2       0 UNK        -0.5359 
      4 N          28.5589   23.4896   -0.9834 N.am      1 UNK        -0.4318 
      5 CA         29.2743   23.4274    0.2990 C.3       1 UNK         0.0824 
      6 C6         29.6190   21.9685    0.7276 C.3       12 UNK        -0.0944 
      7 S7         30.9217   21.2484   -0.3327 S.3       12 UNK        -0.2672 
      8 C8         32.3919   21.2952    0.7562 C.3       12 UNK         0.0333 
      9 C9         32.5993   22.6696    1.3792 C.ar      12 UNK        -0.0807 
     10 C10        32.4660   22.8469    2.7614 C.ar      12 UNK        -0.0894 
     11 C11        32.5306   24.1266    3.3205 C.ar      12 UNK        -0.0804 
     12 C12        32.7192   25.2293    2.4825 C.ar      12 UNK        -0.0824 
     13 C13        32.8825   25.0626    1.1057 C.ar      12 UNK        -0.0762 
     14 C14        32.8550   23.7754    0.5632 C.ar      12 UNK        -0.0782 
     15 C15        33.0353   26.2758    0.2017 C.3       12 UNK         0.0230 
     16 S16        31.5914   26.4406   -0.8948 S.3       12 UNK        -0.2608 
     17 C17        31.4546   28.2515   -1.0889 C.3       12 UNK        -0.0989 
     18 CA         30.2232   28.8539   -0.3645 C.3       5 UNK         0.0716 
     19 N          28.9813   28.1534   -0.7161 N.am      5 UNK        -0.4135 
     20 C          27.7387   28.4424   -0.3068 C.2       4 UNK         0.5031 
     21 O          27.4750   29.2989    0.5381 O.2       4 UNK        -0.5229 
     22 CA         26.5920   27.6656   -0.9681 C.3       4 UNK         0.0329 
     23 CB         26.9848   26.9394   -2.2726 C.3       4 UNK        -0.2001 
     24 N          26.0245   26.7037   -0.0247 N.am      4 UNK        -0.4303 
     25 C          24.7118   26.4597    0.1032 C.2       3 UNK         0.5044 
     26 O          23.8472   27.0742   -0.5245 O.2       3 UNK        -0.5152 
     27 CA         24.2587   25.3338    1.0530 C.3       3 UNK         0.0319 
     28 CB         23.4089   24.2950    0.3000 C.3       3 UNK        -0.2001 
     29 N          25.3707   24.6373    1.6996 N.am      3 UNK        -0.4354 
     30 C          25.8825   24.9583    2.8958 C.2       2 UNK         0.4964 
     31 O          25.4676   25.8826    3.5946 O.2       2 UNK        -0.5047 
     32 CA         27.0645   24.1100    3.4011 C.3       2 UNK         0.0288 
     33 CB         26.5530   22.9594    4.2830 C.3       2 UNK        -0.2113 
     34 N          27.9035   23.5553    2.3362 N.am      2 UNK        -0.4145 
     35 C          28.5363   24.2485    1.3770 C.2       1 UNK         0.5006 
     36 O          28.5130   25.4800    1.2856 O.2       1 UNK        -0.5103 
     37 C          30.4710   29.0356    1.1472 C.2       5 UNK         0.5055 
     38 O          31.0559   30.0510    1.5294 O.2       5 UNK        -0.5220 
     39 N          29.9652   28.1151    1.9820 N.am      6 UNK        -0.4450 
     40 CA         30.0071   28.2123    3.4442 C.3       6 UNK         0.0367 
     41 CB         29.4300   26.9310    4.0531 C.3       6 UNK        -0.1929 
     42 C          29.2785   29.4374    4.0277 C.2       6 UNK         0.5070 
     43 O          29.6155   29.8541    5.1348 O.2       6 UNK        -0.5237 
     44 N          28.3001   29.9869    3.2948 N.am      7 UNK        -0.4739 
     45 CA         27.5975   31.2186    3.6584 C.3       7 UNK         0.0276 
     46 CB         26.1461   31.1277    3.1598 C.3       7 UNK        -0.1927 
     47 C          28.2815   32.4749    3.0896 C.2       7 UNK         0.5013 
     48 O          27.9962   33.5734    3.5673 O.2       7 UNK        -0.5193 
     49 N          29.1417   32.3087    2.0756 N.am      8 UNK        -0.4253 
     50 CA         29.8348   33.3984    1.3867 C.3       8 UNK         0.0242 
     51 CB         30.0309   33.0260   -0.0925 C.3       8 UNK        -0.2000 
     52 C          31.1848   33.7300    2.0387 C.2       8 UNK         0.4948 
     53 O          31.5288   34.9088    2.1363 O.2       8 UNK        -0.5275 
     54 N          31.9269   32.6994    2.4599 N.am      9 UNK        -0.4246 
     55 CA         33.2457   32.8095    3.0810 C.3       9 UNK         0.0261 
     56 CB         34.3348   32.8422    1.9860 C.3       9 UNK        -0.1959 
     57 C          33.4023   31.6726    4.1020 C.2       9 UNK         0.5033 
     58 O          32.4691   31.4244    4.8665 O.2       9 UNK        -0.5390 
     59 N          34.5594   30.9945    4.1065 N.am      10 UNK        -0.4215 
     60 CA         34.7951   29.7556    4.8555 C.3       10 UNK         0.0240 
     61 CB         36.2755   29.3627    4.7161 C.3       10 UNK        -0.1982 
     62 C          33.8824   28.6300    4.3227 C.2       10 UNK         0.4970 
     63 O          33.6334   28.6036    3.1179 O.2       10 UNK        -0.4916 
     64 N          33.3947   27.6881    5.1393 N.am      11 UNK        -0.4279 
     65 CA         33.7151   27.4028    6.5464 C.3       11 UNK         0.1003 
     66 C          33.0892   28.3704    7.5931 C.2       11 UNK         0.5709 
     67 N          32.2378   29.3139    7.2138 N.am      11 UNK        -0.7358 
     68 O          33.3976   28.2688    8.7777 O.2       11 UNK        -0.4999 
     69 C69        33.3701   25.9263    6.9047 C.3       12 UNK        -0.0954 
     70 S70        33.9188   24.7052    5.6554 S.3       12 UNK        -0.2268 
     71 C71        32.3430   24.3307    4.8173 C.3       12 UNK         0.0203 
     72 H72        27.5027   23.7213   -3.2974 H         1 UNK         0.0888 
     73 H73        26.4752   22.3129   -3.0208 H         1 UNK         0.0888 
     74 H74        25.8771   23.9295   -2.6407 H         1 UNK         0.0888 
     75 H75        29.1169   23.8194   -1.7578 H         1 UNK         0.3017 
     76 H76        30.2085   23.9635    0.1439 H         1 UNK         0.0873 
     77 H77        29.9583   21.9236    1.7634 H         1 UNK         0.0745 
     78 H78        28.7386   21.3261    0.6719 H         1 UNK         0.0745 
     79 H79        32.2825   20.5322    1.5283 H         1 UNK         0.0705 
     80 H80        33.2749   21.0231    0.1764 H         1 UNK         0.0705 
     81 H81        32.2776   21.9934    3.3985 H         1 UNK         0.1334 
     82 H82        32.7268   26.2243    2.8968 H         1 UNK         0.1417 
     83 H83        32.9519   23.6427   -0.5062 H         1 UNK         0.1562 
     84 H84        33.9408   26.1809   -0.3989 H         1 UNK         0.0748 
     85 H85        33.1518   27.1801    0.8011 H         1 UNK         0.0748 
     86 H86        31.3738   28.4544   -2.1579 H         1 UNK         0.0940 
     87 H87        32.3783   28.7439   -0.7772 H         1 UNK         0.0940 
     88 H88        30.0957   29.8652   -0.7549 H         1 UNK         0.0703 
     89 H89        29.0937   27.3987   -1.3763 H         1 UNK         0.3081 
     90 H90        25.8456   28.4209   -1.2228 H         1 UNK         0.0719 
     91 H91        27.6988   26.1353   -2.0968 H         1 UNK         0.0809 
     92 H92        26.1083   26.5022   -2.7511 H         1 UNK         0.0809 
     93 H93        27.4258   27.6295   -2.9936 H         1 UNK         0.0809 
     94 H94        26.6868   26.2055    0.5609 H         1 UNK         0.2990 
     95 H95        23.6250   25.7942    1.8137 H         1 UNK         0.0690 
     96 H96        23.0630   23.5067    0.9686 H         1 UNK         0.0788 
     97 H97        23.9693   23.8258   -0.5092 H         1 UNK         0.0788 
     98 H98        22.5228   24.7543   -0.1403 H         1 UNK         0.0788 
     99 H99        25.7904   23.8767    1.1709 H         1 UNK         0.2993 
    100 H100       27.6935   24.7461    4.0214 H         1 UNK         0.0949 
    101 H101       27.3780   22.4005    4.7255 H         1 UNK         0.0767 
    102 H102       25.9441   23.3385    5.1052 H         1 UNK         0.0767 
    103 H103       25.9369   22.2597    3.7165 H         1 UNK         0.0767 
    104 H104       27.9418   22.5480    2.2865 H         1 UNK         0.3013 
    105 H105       29.4861   27.3100    1.5900 H         1 UNK         0.3121 
    106 H106       31.0533   28.2931    3.7316 H         1 UNK         0.0774 
    107 H107       29.5740   26.9098    5.1341 H         1 UNK         0.0815 
    108 H108       28.3585   26.8709    3.8641 H         1 UNK         0.0815 
    109 H109       29.8997   26.0402    3.6377 H         1 UNK         0.0815 
    110 H110       28.0661   29.5828    2.3910 H         1 UNK         0.2987 
    111 H111       27.5745   31.3222    4.7455 H         1 UNK         0.0949 
    112 H112       26.0950   31.0625    2.0725 H         1 UNK         0.0806 
    113 H113       25.6390   30.2551    3.5716 H         1 UNK         0.0806 
    114 H114       25.5746   32.0068    3.4601 H         1 UNK         0.0806 
    115 H115       29.3784   31.3662    1.7947 H         1 UNK         0.3010 
    116 H116       29.2156   34.2976    1.4234 H         1 UNK         0.0829 
    117 H117       29.0823   32.7841   -0.5716 H         1 UNK         0.0813 
    118 H118       30.4711   33.8570   -0.6450 H         1 UNK         0.0813 
    119 H119       30.6969   32.1713   -0.2119 H         1 UNK         0.0813 
    120 H120       31.5715   31.7521    2.3493 H         1 UNK         0.3038 
    121 H121       33.2981   33.7389    3.6515 H         1 UNK         0.0769 
    122 H122       34.3566   31.9159    1.4099 H         1 UNK         0.0811 
    123 H123       35.3266   33.0025    2.4102 H         1 UNK         0.0811 
    124 H124       34.1602   33.6589    1.2852 H         1 UNK         0.0811 
    125 H125       35.2586   31.2470    3.4245 H         1 UNK         0.3204 
    126 H126       34.5833   29.9625    5.9031 H         1 UNK         0.0748 
    127 H127       36.4993   28.4562    5.2794 H         1 UNK         0.0771 
    128 H128       36.5457   29.1717    3.6764 H         1 UNK         0.0771 
    129 H129       36.9318   30.1467    5.0947 H         1 UNK         0.0771 
    130 H130       32.7942   26.9953    4.7268 H         1 UNK         0.2980 
    131 H131       34.7951   27.5109    6.6517 H         1 UNK         0.0545 
    132 H132       31.9839   29.4514    6.2460 H         1 UNK         0.3459 
    133 H133       31.8515   29.9283    7.9121 H         1 UNK         0.3459 
    134 H134       33.8420   25.6562    7.8513 H         1 UNK         0.0616 
    135 H135       32.2972   25.8098    7.0698 H         1 UNK         0.0616 
    136 H136       31.8992   23.4470    5.2784 H         1 UNK         0.0634 
    137 H137       31.6321   25.1412    4.9731 H         1 UNK         0.0634 
@<TRIPOS>BOND
     1    1    2 1    
     2    1   72 1    
     3    1   73 1    
     4    1   74 1    
     5    2    3 2    
     6    2    4 am   BACKBONE|DICT|INTERRES
     7    4    5 1    
     8    4   75 1    
     9    5    6 1    
    10    5   35 1    
    11    5   76 1    
    12    6    7 1    
    13    6   77 1    
    14    6   78 1    
    15    7    8 1    
    16    8    9 1    
    17    8   79 1    
    18    8   80 1    
    19    9   10 ar   
    20    9   14 ar   
    21   10   11 ar   
    22   10   81 1    
    23   11   12 ar   
    24   11   71 1    
    25   12   13 ar   
    26   12   82 1    
    27   13   14 ar   
    28   13   15 1    
    29   14   83 1    
    30   15   16 1    
    31   15   84 1    
    32   15   85 1    
    33   16   17 1    
    34   17   18 1    
    35   17   86 1    
    36   17   87 1    
    37   18   19 1    
    38   18   37 1    
    39   18   88 1    
    40   19   20 am   BACKBONE|DICT|INTERRES
    41   19   89 1    
    42   20   21 2    
    43   20   22 1    
    44   22   23 1    
    45   22   24 1    
    46   22   90 1    
    47   23   91 1    
    48   23   92 1    
    49   23   93 1    
    50   24   25 am   BACKBONE|DICT|INTERRES
    51   24   94 1    
    52   25   26 2    
    53   25   27 1    
    54   27   28 1    
    55   27   29 1    
    56   27   95 1    
    57   28   96 1    
    58   28   97 1    
    59   28   98 1    
    60   29   30 am   BACKBONE|DICT|INTERRES
    61   29   99 1    
    62   30   31 2    
    63   30   32 1    
    64   32   33 1    
    65   32   34 1    
    66   32  100 1    
    67   33  101 1    
    68   33  102 1    
    69   33  103 1    
    70   34   35 am   BACKBONE|DICT|INTERRES
    71   34  104 1    
    72   35   36 2    
    73   37   38 2    
    74   37   39 am   BACKBONE|DICT|INTERRES
    75   39   40 1    
    76   39  105 1    
    77   40   41 1    
    78   40   42 1    
    79   40  106 1    
    80   41  107 1    
    81   41  108 1    
    82   41  109 1    
    83   42   43 2    
    84   42   44 am   BACKBONE|DICT|INTERRES
    85   44   45 1    
    86   44  110 1    
    87   45   46 1    
    88   45   47 1    
    89   45  111 1    
    90   46  112 1    
    91   46  113 1    
    92   46  114 1    
    93   47   48 2    
    94   47   49 am   BACKBONE|DICT|INTERRES
    95   49   50 1    
    96   49  115 1    
    97   50   51 1    
    98   50   52 1    
    99   50  116 1    
   100   51  117 1    
   101   51  118 1    
   102   51  119 1    
   103   52   53 2    
   104   52   54 am   BACKBONE|DICT|INTERRES
   105   54   55 1    
   106   54  120 1    
   107   55   56 1    
   108   55   57 1    
   109   55  121 1    
   110   56  122 1    
   111   56  123 1    
   112   56  124 1    
   113   57   58 2    
   114   57   59 am   BACKBONE|DICT|INTERRES
   115   59   60 1    
   116   59  125 1    
   117   60   61 1    
   118   60   62 1    
   119   60  126 1    
   120   61  127 1    
   121   61  128 1    
   122   61  129 1    
   123   62   63 2    
   124   62   64 am   BACKBONE|DICT|INTERRES
   125   64   65 1    
   126   64  130 1    
   127   65   66 1    
   128   65   69 1    
   129   65  131 1    
   130   66   67 am   BACKBONE|DICT|INTERRES
   131   66   68 2    
   132   67  132 1    
   133   67  133 1    
   134   69   70 1    
   135   69  134 1    
   136   69  135 1    
   137   70   71 1    
   138   71  136 1    
   139   71  137 1    
@<TRIPOS>SUBSTRUCTURE
     1 UNK         1 GROUP             0       ****    0 ROOT    
