@<TRIPOS>MOLECULE
3R136
137   139    1
SMALL
USER_CHARGES


@<TRIPOS>ATOM
      1 CA         31.1611   23.4495    7.0049 C.3       0 UNK        -0.1979 
      2 C          30.6392   22.7202    5.7764 C.2       0 UNK         0.4864 
      3 O          30.0927   21.6223    5.8986 O.2       0 UNK        -0.5359 
      4 N          30.8139   23.3217    4.5923 N.am      1 UNK        -0.4318 
      5 CA         30.3277   22.8004    3.3112 C.3       1 UNK         0.0824 
      6 C6         30.9298   23.5697    2.1103 C.3       12 UNK        -0.0944 
      7 S7         30.7117   22.6854    0.5260 S.3       12 UNK        -0.2672 
      8 C8         32.1329   23.2818   -0.4456 C.3       12 UNK         0.0333 
      9 C9         32.0319   24.7713   -0.7418 C.ar      12 UNK        -0.0807 
     10 C10        32.6976   25.6924    0.0719 C.ar      12 UNK        -0.0894 
     11 C11        32.5735   27.0640   -0.1640 C.ar      12 UNK        -0.0804 
     12 C12        31.8359   27.5098   -1.2610 C.ar      12 UNK        -0.0824 
     13 C13        31.1329   26.6039   -2.0577 C.ar      12 UNK        -0.0762 
     14 C14        31.2468   25.2324   -1.8045 C.ar      12 UNK        -0.0782 
     15 C15        30.2103   27.1166   -3.1535 C.3       12 UNK         0.0230 
     16 S16        28.5191   27.3988   -2.5271 S.3       12 UNK        -0.2608 
     17 C17        28.7200   28.9211   -1.5370 C.3       12 UNK        -0.0989 
     18 CA         27.4836   29.2486   -0.6657 C.3       5 UNK         0.0716 
     19 N          27.1833   28.1645    0.2765 N.am      5 UNK        -0.4135 
     20 C          26.0509   28.0429    0.9820 C.2       4 UNK         0.5031 
     21 O          25.1414   28.8752    0.9619 O.2       4 UNK        -0.5229 
     22 CA         25.9118   26.7621    1.8337 C.3       4 UNK         0.0329 
     23 CB         24.4797   26.5524    2.3696 C.3       4 UNK        -0.2001 
     24 N          26.3816   25.5470    1.1530 N.am      4 UNK        -0.4303 
     25 C          25.9545   25.0583   -0.0248 C.2       3 UNK         0.5044 
     26 O          25.1178   25.6073   -0.7422 O.2       3 UNK        -0.5152 
     27 CA         26.5509   23.7122   -0.4798 C.3       3 UNK         0.0319 
     28 CB         27.7553   23.9460   -1.4042 C.3       3 UNK        -0.2001 
     29 N          26.9592   22.8444    0.6281 N.am      3 UNK        -0.4354 
     30 C          26.1286   22.3097    1.5370 C.2       2 UNK         0.4964 
     31 O          24.9051   22.4441    1.5047 O.2       2 UNK        -0.5047 
     32 CA         26.7560   21.4869    2.6789 C.3       2 UNK         0.0288 
     33 CB         26.4766   19.9879    2.4787 C.3       2 UNK        -0.2113 
     34 N          28.2003   21.6824    2.8398 N.am      2 UNK        -0.4145 
     35 C          28.7860   22.8119    3.2619 C.2       1 UNK         0.5006 
     36 O          28.1698   23.8413    3.5524 O.2       1 UNK        -0.5103 
     37 C          27.6733   30.6247    0.0115 C.2       5 UNK         0.5055 
     38 O          27.4923   31.6410   -0.6610 O.2       5 UNK        -0.5220 
     39 N          28.0575   30.6415    1.2992 N.am      6 UNK        -0.4450 
     40 CA         28.3453   31.8207    2.1298 C.3       6 UNK         0.0367 
     41 CB         27.0645   32.6468    2.3725 C.3       6 UNK        -0.1929 
     42 C          29.5224   32.6785    1.6193 C.2       6 UNK         0.5070 
     43 O          29.5729   33.8778    1.8968 O.2       6 UNK        -0.5237 
     44 N          30.4574   32.0532    0.8912 N.am      7 UNK        -0.4739 
     45 CA         31.6515   32.6977    0.3362 C.3       7 UNK         0.0276 
     46 CB         32.1595   31.8647   -0.8525 C.3       7 UNK        -0.1927 
     47 C          32.7705   32.8937    1.3756 C.2       7 UNK         0.5013 
     48 O          33.6435   33.7379    1.1696 O.2       7 UNK        -0.5193 
     49 N          32.7320   32.1137    2.4601 N.am      8 UNK        -0.4253 
     50 CA         33.6814   32.1041    3.5656 C.3       8 UNK         0.0242 
     51 CB         34.9320   31.2962    3.1666 C.3       8 UNK        -0.2000 
     52 C          32.9889   31.4749    4.7795 C.2       8 UNK         0.4948 
     53 O          31.9356   30.8505    4.6279 O.2       8 UNK        -0.5275 
     54 N          33.6147   31.5948    5.9587 N.am      9 UNK        -0.4246 
     55 CA         33.1380   31.0182    7.2253 C.3       9 UNK         0.0261 
     56 CB         34.0662   31.4625    8.3674 C.3       9 UNK        -0.1959 
     57 C          32.9993   29.4821    7.2115 C.2       9 UNK         0.5033 
     58 O          32.1837   28.9418    7.9589 O.2       9 UNK        -0.5390 
     59 N          33.7651   28.8145    6.3379 N.am      10 UNK        -0.4215 
     60 CA         33.6976   27.3774    6.0642 C.3       10 UNK         0.0240 
     61 CB         34.9854   26.9571    5.3347 C.3       10 UNK        -0.1982 
     62 C          32.4590   26.9429    5.2536 C.2       10 UNK         0.4970 
     63 O          32.2810   25.7405    5.0547 O.2       10 UNK        -0.4916 
     64 N          31.6430   27.8889    4.7747 N.am      11 UNK        -0.4279 
     65 CA         30.4801   27.6218    3.9201 C.3       11 UNK         0.1003 
     66 C          29.2861   28.5840    4.1535 C.2       11 UNK         0.5709 
     67 N          29.2265   29.3092    5.2633 N.am      11 UNK        -0.7358 
     68 O          28.3840   28.6605    3.3237 O.2       11 UNK        -0.4999 
     69 C69        30.8854   27.4621    2.4335 C.3       12 UNK        -0.0954 
     70 S70        31.7771   28.8949    1.7312 S.3       12 UNK        -0.2268 
     71 C71        33.1332   28.0717    0.8281 C.3       12 UNK         0.0203 
     72 H72        30.7174   24.4424    7.0770 H         1 UNK         0.0888 
     73 H73        30.9185   22.9022    7.9156 H         1 UNK         0.0888 
     74 H74        32.2442   23.5589    6.9509 H         1 UNK         0.0888 
     75 H75        31.2807   24.2260    4.5736 H         1 UNK         0.3017 
     76 H76        30.6707   21.7648    3.2515 H         1 UNK         0.0873 
     77 H77        30.4906   24.5640    2.0195 H         1 UNK         0.0745 
     78 H78        31.9981   23.7188    2.2737 H         1 UNK         0.0745 
     79 H79        33.0588   23.0556    0.0857 H         1 UNK         0.0705 
     80 H80        32.1768   22.7253   -1.3829 H         1 UNK         0.0705 
     81 H81        33.2698   25.3438    0.9205 H         1 UNK         0.1334 
     82 H82        31.7477   28.5714   -1.4439 H         1 UNK         0.1417 
     83 H83        30.7017   24.5252   -2.4150 H         1 UNK         0.1562 
     84 H84        30.1672   26.3924   -3.9684 H         1 UNK         0.0748 
     85 H85        30.6015   28.0390   -3.5856 H         1 UNK         0.0748 
     86 H86        29.5888   28.8226   -0.8890 H         1 UNK         0.0940 
     87 H87        28.9377   29.7395   -2.2269 H         1 UNK         0.0940 
     88 H88        26.6213   29.3443   -1.3292 H         1 UNK         0.0703 
     89 H89        27.8627   27.4208    0.3287 H         1 UNK         0.3081 
     90 H90        26.5636   26.8945    2.6974 H         1 UNK         0.0719 
     91 H91        23.7566   26.4502    1.5596 H         1 UNK         0.0809 
     92 H92        24.4160   25.6584    2.9901 H         1 UNK         0.0809 
     93 H93        24.1641   27.3962    2.9844 H         1 UNK         0.0809 
     94 H94        27.0622   25.0003    1.6650 H         1 UNK         0.2990 
     95 H95        25.7809   23.1848   -1.0466 H         1 UNK         0.0690 
     96 H96        28.1762   23.0059   -1.7612 H         1 UNK         0.0788 
     97 H97        28.5474   24.4997   -0.8987 H         1 UNK         0.0788 
     98 H98        27.4640   24.5235   -2.2825 H         1 UNK         0.0788 
     99 H99        27.9488   22.6629    0.7194 H         1 UNK         0.2993 
    100 H100       26.2713   21.8065    3.6042 H         1 UNK         0.0949 
    101 H101       26.8398   19.3998    3.3219 H         1 UNK         0.0767 
    102 H102       25.4057   19.7972    2.3923 H         1 UNK         0.0767 
    103 H103       26.9494   19.6065    1.5726 H         1 UNK         0.0767 
    104 H104       28.7862   20.8930    2.6069 H         1 UNK         0.3013 
    105 H105       28.1546   29.7535    1.7871 H         1 UNK         0.3121 
    106 H106       28.6681   31.4342    3.0971 H         1 UNK         0.0774 
    107 H107       27.2368   33.4292    3.1125 H         1 UNK         0.0815 
    108 H108       26.7176   33.1334    1.4606 H         1 UNK         0.0815 
    109 H109       26.2553   32.0205    2.7480 H         1 UNK         0.0815 
    110 H110       30.3541   31.0620    0.7287 H         1 UNK         0.2987 
    111 H111       31.3738   33.6869   -0.0351 H         1 UNK         0.0949 
    112 H112       32.4741   30.8681   -0.5433 H         1 UNK         0.0806 
    113 H113       31.3910   31.7537   -1.6178 H         1 UNK         0.0806 
    114 H114       33.0185   32.3439   -1.3242 H         1 UNK         0.0806 
    115 H115       31.9597   31.4687    2.5812 H         1 UNK         0.3010 
    116 H116       33.9579   33.1309    3.8141 H         1 UNK         0.0829 
    117 H117       35.4246   31.7309    2.2966 H         1 UNK         0.0813 
    118 H118       35.6675   31.2754    3.9714 H         1 UNK         0.0813 
    119 H119       34.6803   30.2628    2.9228 H         1 UNK         0.0813 
    120 H120       34.4766   32.1206    5.9996 H         1 UNK         0.3038 
    121 H121       32.1432   31.4271    7.4148 H         1 UNK         0.0769 
    122 H122       35.0874   31.1088    8.2199 H         1 UNK         0.0811 
    123 H123       33.7213   31.0708    9.3255 H         1 UNK         0.0811 
    124 H124       34.0952   32.5487    8.4570 H         1 UNK         0.0811 
    125 H125       34.4053   29.3505    5.7712 H         1 UNK         0.3204 
    126 H126       33.6556   26.8493    7.0190 H         1 UNK         0.0748 
    127 H127       35.8721   27.2000    5.9206 H         1 UNK         0.0771 
    128 H128       35.0034   25.8805    5.1585 H         1 UNK         0.0771 
    129 H129       35.0772   27.4466    4.3641 H         1 UNK         0.0771 
    130 H130       31.8502   28.8723    4.9192 H         1 UNK         0.2980 
    131 H131       30.0630   26.6608    4.2273 H         1 UNK         0.0545 
    132 H132       28.4397   29.9203    5.4072 H         1 UNK         0.3459 
    133 H133       29.9565   29.2568    5.9551 H         1 UNK         0.3459 
    134 H134       31.5313   26.5889    2.3643 H         1 UNK         0.0616 
    135 H135       30.0220   27.2398    1.8044 H         1 UNK         0.0616 
    136 H136       33.7263   28.8210    0.3025 H         1 UNK         0.0634 
    137 H137       33.7995   27.5899    1.5454 H         1 UNK         0.0634 
@<TRIPOS>BOND
     1    1    2 1    
     2    1   72 1    
     3    1   73 1    
     4    1   74 1    
     5    2    3 2    
     6    2    4 am   BACKBONE|DICT|INTERRES
     7    4    5 1    
     8    4   75 1    
     9    5    6 1    
    10    5   35 1    
    11    5   76 1    
    12    6    7 1    
    13    6   77 1    
    14    6   78 1    
    15    7    8 1    
    16    8    9 1    
    17    8   79 1    
    18    8   80 1    
    19    9   10 ar   
    20    9   14 ar   
    21   10   11 ar   
    22   10   81 1    
    23   11   12 ar   
    24   11   71 1    
    25   12   13 ar   
    26   12   82 1    
    27   13   14 ar   
    28   13   15 1    
    29   14   83 1    
    30   15   16 1    
    31   15   84 1    
    32   15   85 1    
    33   16   17 1    
    34   17   18 1    
    35   17   86 1    
    36   17   87 1    
    37   18   19 1    
    38   18   37 1    
    39   18   88 1    
    40   19   20 am   BACKBONE|DICT|INTERRES
    41   19   89 1    
    42   20   21 2    
    43   20   22 1    
    44   22   23 1    
    45   22   24 1    
    46   22   90 1    
    47   23   91 1    
    48   23   92 1    
    49   23   93 1    
    50   24   25 am   BACKBONE|DICT|INTERRES
    51   24   94 1    
    52   25   26 2    
    53   25   27 1    
    54   27   28 1    
    55   27   29 1    
    56   27   95 1    
    57   28   96 1    
    58   28   97 1    
    59   28   98 1    
    60   29   30 am   BACKBONE|DICT|INTERRES
    61   29   99 1    
    62   30   31 2    
    63   30   32 1    
    64   32   33 1    
    65   32   34 1    
    66   32  100 1    
    67   33  101 1    
    68   33  102 1    
    69   33  103 1    
    70   34   35 am   BACKBONE|DICT|INTERRES
    71   34  104 1    
    72   35   36 2    
    73   37   38 2    
    74   37   39 am   BACKBONE|DICT|INTERRES
    75   39   40 1    
    76   39  105 1    
    77   40   41 1    
    78   40   42 1    
    79   40  106 1    
    80   41  107 1    
    81   41  108 1    
    82   41  109 1    
    83   42   43 2    
    84   42   44 am   BACKBONE|DICT|INTERRES
    85   44   45 1    
    86   44  110 1    
    87   45   46 1    
    88   45   47 1    
    89   45  111 1    
    90   46  112 1    
    91   46  113 1    
    92   46  114 1    
    93   47   48 2    
    94   47   49 am   BACKBONE|DICT|INTERRES
    95   49   50 1    
    96   49  115 1    
    97   50   51 1    
    98   50   52 1    
    99   50  116 1    
   100   51  117 1    
   101   51  118 1    
   102   51  119 1    
   103   52   53 2    
   104   52   54 am   BACKBONE|DICT|INTERRES
   105   54   55 1    
   106   54  120 1    
   107   55   56 1    
   108   55   57 1    
   109   55  121 1    
   110   56  122 1    
   111   56  123 1    
   112   56  124 1    
   113   57   58 2    
   114   57   59 am   BACKBONE|DICT|INTERRES
   115   59   60 1    
   116   59  125 1    
   117   60   61 1    
   118   60   62 1    
   119   60  126 1    
   120   61  127 1    
   121   61  128 1    
   122   61  129 1    
   123   62   63 2    
   124   62   64 am   BACKBONE|DICT|INTERRES
   125   64   65 1    
   126   64  130 1    
   127   65   66 1    
   128   65   69 1    
   129   65  131 1    
   130   66   67 am   BACKBONE|DICT|INTERRES
   131   66   68 2    
   132   67  132 1    
   133   67  133 1    
   134   69   70 1    
   135   69  134 1    
   136   69  135 1    
   137   70   71 1    
   138   71  136 1    
   139   71  137 1    
@<TRIPOS>SUBSTRUCTURE
     1 UNK         1 GROUP             0       ****    0 ROOT    
