@<TRIPOS>MOLECULE
3R136
137   139    1
SMALL
USER_CHARGES


@<TRIPOS>ATOM
      1 CA         30.2502   29.1271   -2.7373 C.3       0 UNK        -0.1979 
      2 C          31.1357   27.9083   -2.4889 C.2       0 UNK         0.4864 
      3 O          32.1650   27.7660   -3.1456 O.2       0 UNK        -0.5359 
      4 N          30.7855   27.0046   -1.5611 N.am      1 UNK        -0.4318 
      5 CA         29.5774   27.0143   -0.7239 C.3       1 UNK         0.0824 
      6 C6         29.8312   26.3246    0.6358 C.3       12 UNK        -0.0944 
      7 S7         30.2340   24.5425    0.5307 S.3       12 UNK        -0.2672 
      8 C8         31.3941   24.3475    1.9240 C.3       12 UNK         0.0333 
      9 C9         30.7723   24.8111    3.2331 C.ar      12 UNK        -0.0807 
     10 C10        31.1037   26.0618    3.7610 C.ar      12 UNK        -0.0894 
     11 C11        30.4789   26.5344    4.9166 C.ar      12 UNK        -0.0804 
     12 C12        29.5269   25.7355    5.5585 C.ar      12 UNK        -0.0824 
     13 C13        29.2025   24.4713    5.0521 C.ar      12 UNK        -0.0762 
     14 C14        29.8354   24.0111    3.8930 C.ar      12 UNK        -0.0782 
     15 C15        28.1443   23.6144    5.7348 C.3       12 UNK         0.0230 
     16 S16        26.6091   23.5108    4.7536 S.3       12 UNK        -0.2608 
     17 C17        26.1080   25.2637    4.6727 C.3       12 UNK        -0.0989 
     18 CA         26.5329   25.9201    3.3294 C.3       5 UNK         0.0716 
     19 N          25.8977   25.3300    2.1473 N.am      5 UNK        -0.4135 
     20 C          24.5955   25.3699    1.8294 C.2       4 UNK         0.5031 
     21 O          23.7250   25.8630    2.5480 O.2       4 UNK        -0.5229 
     22 CA         24.1916   24.7926    0.4624 C.3       4 UNK         0.0329 
     23 CB         23.6396   25.9066   -0.4446 C.3       4 UNK        -0.2001 
     24 N          25.3186   24.1621   -0.2256 N.am      4 UNK        -0.4303 
     25 C          25.5842   22.8485   -0.2534 C.2       3 UNK         0.5044 
     26 O          24.9015   22.0063    0.3312 O.2       3 UNK        -0.5152 
     27 CA         26.8320   22.3959   -1.0468 C.3       3 UNK         0.0319 
     28 CB         26.5857   21.0906   -1.8326 C.3       3 UNK        -0.2001 
     29 N          27.3978   23.4397   -1.9150 N.am      3 UNK        -0.4354 
     30 C          26.8073   24.0506   -2.9564 C.2       2 UNK         0.4964 
     31 O          25.7222   23.7060   -3.4256 O.2       2 UNK        -0.5047 
     32 CA         27.5272   25.2830   -3.5439 C.3       2 UNK         0.0288 
     33 CB         26.5311   26.3587   -4.0291 C.3       2 UNK        -0.2113 
     34 N          28.5267   25.8868   -2.6488 N.am      2 UNK        -0.4145 
     35 C          28.3349   26.4297   -1.4332 C.2       1 UNK         0.5006 
     36 O          27.2474   26.4523   -0.8499 O.2       1 UNK        -0.5103 
     37 C          26.4175   27.4585    3.3291 C.2       5 UNK         0.5055 
     38 O          26.1774   28.0661    4.3752 O.2       5 UNK        -0.5220 
     39 N          26.6132   28.0653    2.1477 N.am      6 UNK        -0.4450 
     40 CA         26.8090   29.5069    1.9905 C.3       6 UNK         0.0367 
     41 CB         26.7263   29.8687    0.4986 C.3       6 UNK        -0.1929 
     42 C          28.1579   29.9427    2.5923 C.2       6 UNK         0.5070 
     43 O          29.0699   29.1201    2.7147 O.2       6 UNK        -0.5237 
     44 N          28.2642   31.2294    2.9472 N.am      7 UNK        -0.4739 
     45 CA         29.4078   31.8451    3.6329 C.3       7 UNK         0.0276 
     46 CB         28.9579   33.1908    4.2324 C.3       7 UNK        -0.1927 
     47 C          30.6696   31.9822    2.7533 C.2       7 UNK         0.5013 
     48 O          31.1574   33.0924    2.5303 O.2       7 UNK        -0.5193 
     49 N          31.1735   30.8425    2.2716 N.am      8 UNK        -0.4253 
     50 CA         32.4522   30.6908    1.5823 C.3       8 UNK         0.0242 
     51 CB         32.4810   29.3054    0.9160 C.3       8 UNK        -0.2000 
     52 C          33.6333   30.8409    2.5555 C.2       8 UNK         0.4948 
     53 O          33.4608   30.6825    3.7667 O.2       8 UNK        -0.5275 
     54 N          34.8293   31.0718    1.9952 N.am      9 UNK        -0.4246 
     55 CA         36.0994   31.2854    2.7070 C.3       9 UNK         0.0261 
     56 CB         37.1955   31.6117    1.6781 C.3       9 UNK        -0.1959 
     57 C          36.5556   30.1388    3.6347 C.2       9 UNK         0.5033 
     58 O          37.4591   30.3491    4.4454 O.2       9 UNK        -0.5390 
     59 N          35.9271   28.9608    3.5190 N.am      10 UNK        -0.4215 
     60 CA         36.0577   27.8400    4.4515 C.3       10 UNK         0.0240 
     61 CB         35.3456   26.6107    3.8621 C.3       10 UNK        -0.1982 
     62 C          35.5094   28.1509    5.8592 C.2       10 UNK         0.4970 
     63 O          35.9948   27.5596    6.8248 O.2       10 UNK        -0.4916 
     64 N          34.5274   29.0575    5.9526 N.am      11 UNK        -0.4279 
     65 CA         33.9404   29.5423    7.2084 C.3       11 UNK         0.1003 
     66 C          34.4647   30.9600    7.5580 C.2       11 UNK         0.5709 
     67 N          34.4134   31.3382    8.8283 N.am      11 UNK        -0.7358 
     68 O          34.8947   31.7302    6.7010 O.2       11 UNK        -0.4999 
     69 C69        32.3903   29.5165    7.1576 C.3       12 UNK        -0.0954 
     70 S70        31.7520   27.8147    7.0036 S.3       12 UNK        -0.2268 
     71 C71        30.8174   27.9189    5.4488 C.3       12 UNK         0.0203 
     72 H72        29.2273   28.8354   -2.9723 H         1 UNK         0.0888 
     73 H73        30.2401   29.7818   -1.8663 H         1 UNK         0.0888 
     74 H74        30.6275   29.7057   -3.5804 H         1 UNK         0.0888 
     75 H75        31.3967   26.2143   -1.4070 H         1 UNK         0.3017 
     76 H76        29.3326   28.0507   -0.4927 H         1 UNK         0.0873 
     77 H77        28.9724   26.4461    1.2970 H         1 UNK         0.0745 
     78 H78        30.6495   26.8444    1.1331 H         1 UNK         0.0745 
     79 H79        31.6829   23.2986    2.0044 H         1 UNK         0.0705 
     80 H80        32.3090   24.9030    1.7116 H         1 UNK         0.0705 
     81 H81        31.8276   26.6834    3.2538 H         1 UNK         0.1334 
     82 H82        29.0363   26.1048    6.4487 H         1 UNK         0.1417 
     83 H83        29.5694   23.0460    3.4831 H         1 UNK         0.1562 
     84 H84        27.9113   24.0011    6.7282 H         1 UNK         0.0748 
     85 H85        28.5374   22.6078    5.8840 H         1 UNK         0.0748 
     86 H86        26.5483   25.7875    5.5228 H         1 UNK         0.0940 
     87 H87        25.0283   25.3297    4.8133 H         1 UNK         0.0940 
     88 H88        27.5993   25.7364    3.2015 H         1 UNK         0.0703 
     89 H89        26.5223   24.8901    1.4884 H         1 UNK         0.3081 
     90 H90        23.3987   24.0615    0.6333 H         1 UNK         0.0719 
     91 H91        24.3821   26.6855   -0.6249 H         1 UNK         0.0809 
     92 H92        23.3288   25.5113   -1.4120 H         1 UNK         0.0809 
     93 H93        22.7677   26.3838    0.0049 H         1 UNK         0.0809 
     94 H94        25.9432   24.7919   -0.7177 H         1 UNK         0.2990 
     95 H95        27.5977   22.1873   -0.2979 H         1 UNK         0.0690 
     96 H96        27.4772   20.7816   -2.3783 H         1 UNK         0.0788 
     97 H97        25.7715   21.1950   -2.5501 H         1 UNK         0.0788 
     98 H98        26.3204   20.2736   -1.1606 H         1 UNK         0.0788 
     99 H99        28.2945   23.8004   -1.6187 H         1 UNK         0.2993 
    100 H100       28.0743   24.9199   -4.4155 H         1 UNK         0.0949 
    101 H101       25.8753   25.9664   -4.8074 H         1 UNK         0.0767 
    102 H102       25.8946   26.7159   -3.2184 H         1 UNK         0.0767 
    103 H103       27.0504   27.2190   -4.4515 H         1 UNK         0.0767 
    104 H104       29.4741   25.8850   -3.0018 H         1 UNK         0.3013 
    105 H105       26.7964   27.4947    1.3339 H         1 UNK         0.3121 
    106 H106       26.0067   30.0224    2.5229 H         1 UNK         0.0774 
    107 H107       26.8145   30.9457    0.3507 H         1 UNK         0.0815 
    108 H108       27.5184   29.3969   -0.0804 H         1 UNK         0.0815 
    109 H109       25.7723   29.5618    0.0690 H         1 UNK         0.0815 
    110 H110       27.4791   31.8395    2.7686 H         1 UNK         0.2987 
    111 H111       29.6856   31.1948    4.4659 H         1 UNK         0.0949 
    112 H112       29.7678   33.6596    4.7934 H         1 UNK         0.0806 
    113 H113       28.6474   33.8941    3.4587 H         1 UNK         0.0806 
    114 H114       28.1246   33.0603    4.9232 H         1 UNK         0.0806 
    115 H115       30.6535   29.9928    2.4809 H         1 UNK         0.3010 
    116 H116       32.5255   31.4640    0.8144 H         1 UNK         0.0829 
    117 H117       31.6249   29.1719    0.2565 H         1 UNK         0.0813 
    118 H118       33.3779   29.1721    0.3099 H         1 UNK         0.0813 
    119 H119       32.4611   28.5028    1.6540 H         1 UNK         0.0813 
    120 H120       34.8726   31.1560    0.9893 H         1 UNK         0.3038 
    121 H121       35.9613   32.1599    3.3464 H         1 UNK         0.0769 
    122 H122       38.1474   31.8172    2.1703 H         1 UNK         0.0811 
    123 H123       36.9422   32.4956    1.0923 H         1 UNK         0.0811 
    124 H124       37.3590   30.7837    0.9873 H         1 UNK         0.0811 
    125 H125       35.2072   28.8851    2.8166 H         1 UNK         0.3204 
    126 H126       37.1202   27.6091    4.5535 H         1 UNK         0.0748 
    127 H127       35.4524   25.7464    4.5193 H         1 UNK         0.0771 
    128 H128       34.2775   26.7877    3.7307 H         1 UNK         0.0771 
    129 H129       35.7638   26.3334    2.8943 H         1 UNK         0.0771 
    130 H130       34.2235   29.5574    5.1209 H         1 UNK         0.2980 
    131 H131       34.2510   28.8885    8.0257 H         1 UNK         0.0545 
    132 H132       34.0574   30.7225    9.5429 H         1 UNK         0.3459 
    133 H133       34.7405   32.2585    9.0776 H         1 UNK         0.3459 
    134 H134       32.0221   30.1351    6.3367 H         1 UNK         0.0616 
    135 H135       31.9669   29.9382    8.0708 H         1 UNK         0.0616 
    136 H136       31.3999   28.4766    4.7130 H         1 UNK         0.0634 
    137 H137       29.8993   28.4857    5.6109 H         1 UNK         0.0634 
@<TRIPOS>BOND
     1    1    2 1    
     2    1   72 1    
     3    1   73 1    
     4    1   74 1    
     5    2    3 2    
     6    2    4 am   BACKBONE|DICT|INTERRES
     7    4    5 1    
     8    4   75 1    
     9    5    6 1    
    10    5   35 1    
    11    5   76 1    
    12    6    7 1    
    13    6   77 1    
    14    6   78 1    
    15    7    8 1    
    16    8    9 1    
    17    8   79 1    
    18    8   80 1    
    19    9   10 ar   
    20    9   14 ar   
    21   10   11 ar   
    22   10   81 1    
    23   11   12 ar   
    24   11   71 1    
    25   12   13 ar   
    26   12   82 1    
    27   13   14 ar   
    28   13   15 1    
    29   14   83 1    
    30   15   16 1    
    31   15   84 1    
    32   15   85 1    
    33   16   17 1    
    34   17   18 1    
    35   17   86 1    
    36   17   87 1    
    37   18   19 1    
    38   18   37 1    
    39   18   88 1    
    40   19   20 am   BACKBONE|DICT|INTERRES
    41   19   89 1    
    42   20   21 2    
    43   20   22 1    
    44   22   23 1    
    45   22   24 1    
    46   22   90 1    
    47   23   91 1    
    48   23   92 1    
    49   23   93 1    
    50   24   25 am   BACKBONE|DICT|INTERRES
    51   24   94 1    
    52   25   26 2    
    53   25   27 1    
    54   27   28 1    
    55   27   29 1    
    56   27   95 1    
    57   28   96 1    
    58   28   97 1    
    59   28   98 1    
    60   29   30 am   BACKBONE|DICT|INTERRES
    61   29   99 1    
    62   30   31 2    
    63   30   32 1    
    64   32   33 1    
    65   32   34 1    
    66   32  100 1    
    67   33  101 1    
    68   33  102 1    
    69   33  103 1    
    70   34   35 am   BACKBONE|DICT|INTERRES
    71   34  104 1    
    72   35   36 2    
    73   37   38 2    
    74   37   39 am   BACKBONE|DICT|INTERRES
    75   39   40 1    
    76   39  105 1    
    77   40   41 1    
    78   40   42 1    
    79   40  106 1    
    80   41  107 1    
    81   41  108 1    
    82   41  109 1    
    83   42   43 2    
    84   42   44 am   BACKBONE|DICT|INTERRES
    85   44   45 1    
    86   44  110 1    
    87   45   46 1    
    88   45   47 1    
    89   45  111 1    
    90   46  112 1    
    91   46  113 1    
    92   46  114 1    
    93   47   48 2    
    94   47   49 am   BACKBONE|DICT|INTERRES
    95   49   50 1    
    96   49  115 1    
    97   50   51 1    
    98   50   52 1    
    99   50  116 1    
   100   51  117 1    
   101   51  118 1    
   102   51  119 1    
   103   52   53 2    
   104   52   54 am   BACKBONE|DICT|INTERRES
   105   54   55 1    
   106   54  120 1    
   107   55   56 1    
   108   55   57 1    
   109   55  121 1    
   110   56  122 1    
   111   56  123 1    
   112   56  124 1    
   113   57   58 2    
   114   57   59 am   BACKBONE|DICT|INTERRES
   115   59   60 1    
   116   59  125 1    
   117   60   61 1    
   118   60   62 1    
   119   60  126 1    
   120   61  127 1    
   121   61  128 1    
   122   61  129 1    
   123   62   63 2    
   124   62   64 am   BACKBONE|DICT|INTERRES
   125   64   65 1    
   126   64  130 1    
   127   65   66 1    
   128   65   69 1    
   129   65  131 1    
   130   66   67 am   BACKBONE|DICT|INTERRES
   131   66   68 2    
   132   67  132 1    
   133   67  133 1    
   134   69   70 1    
   135   69  134 1    
   136   69  135 1    
   137   70   71 1    
   138   71  136 1    
   139   71  137 1    
@<TRIPOS>SUBSTRUCTURE
     1 UNK         1 GROUP             0       ****    0 ROOT    
