@<TRIPOS>MOLECULE
3R136
137   139    1
SMALL
USER_CHARGES


@<TRIPOS>ATOM
      1 CA         28.2726   21.0448   -1.3680 C.3       0 UNK        -0.1979 
      2 C          28.4175   22.3429   -0.5895 C.2       0 UNK         0.4864 
      3 O          28.8499   23.3512   -1.1502 O.2       0 UNK        -0.5359 
      4 N          28.0373   22.3410    0.6972 N.am      1 UNK        -0.4318 
      5 CA         28.1847   23.4782    1.6201 C.3       1 UNK         0.0824 
      6 C6         28.0018   23.0776    3.1054 C.3       12 UNK        -0.0944 
      7 S7         28.9481   21.6128    3.6617 S.3       12 UNK        -0.2672 
      8 C8         30.6055   21.7894    2.8999 C.3       12 UNK         0.0333 
      9 C9         31.5159   22.8761    3.4785 C.ar      12 UNK        -0.0807 
     10 C10        32.6922   23.1861    2.7850 C.ar      12 UNK        -0.0894 
     11 C11        33.5991   24.1264    3.2852 C.ar      12 UNK        -0.0804 
     12 C12        33.3235   24.7589    4.4996 C.ar      12 UNK        -0.0824 
     13 C13        32.1586   24.4592    5.2103 C.ar      12 UNK        -0.0762 
     14 C14        31.2558   23.5240    4.6948 C.ar      12 UNK        -0.0782 
     15 C15        31.9197   25.1025    6.5678 C.3       12 UNK         0.0230 
     16 S16        31.5220   26.8703    6.4262 S.3       12 UNK        -0.2608 
     17 C17        29.7298   26.8361    6.1042 C.3       12 UNK        -0.0989 
     18 CA         29.3226   27.8398    4.9975 C.3       5 UNK         0.0716 
     19 N          29.8409   27.4304    3.6838 N.am      5 UNK        -0.4135 
     20 C          29.6285   28.0166    2.4961 C.2       4 UNK         0.5031 
     21 O          28.8108   28.9166    2.3081 O.2       4 UNK        -0.5229 
     22 CA         30.4561   27.5176    1.3039 C.3       4 UNK         0.0329 
     23 CB         31.3193   26.2786    1.6045 C.3       4 UNK        -0.2001 
     24 N          29.5582   27.2188    0.1938 N.am      4 UNK        -0.4303 
     25 C          29.8093   27.4629   -1.0994 C.2       3 UNK         0.5044 
     26 O          30.8278   28.0316   -1.4955 O.2       3 UNK        -0.5152 
     27 CA         28.7797   26.9734   -2.1400 C.3       3 UNK         0.0319 
     28 CB         29.4645   26.1625   -3.2548 C.3       3 UNK        -0.2001 
     29 N          27.7329   26.1428   -1.5408 N.am      3 UNK        -0.4354 
     30 C          26.5374   26.5923   -1.1316 C.2       2 UNK         0.4964 
     31 O          26.1409   27.7414   -1.3170 O.2       2 UNK        -0.5047 
     32 CA         25.6338   25.6076   -0.3638 C.3       2 UNK         0.0288 
     33 CB         24.5951   24.9839   -1.3096 C.3       2 UNK        -0.2113 
     34 N          26.3725   24.5340    0.3088 N.am      2 UNK        -0.4145 
     35 C          27.3012   24.6955    1.2645 C.2       1 UNK         0.5006 
     36 O          27.5168   25.7723    1.8224 O.2       1 UNK        -0.5103 
     37 C          27.8087   28.1308    5.0901 C.2       5 UNK         0.5055 
     38 O          27.4165   28.8977    5.9720 O.2       5 UNK        -0.5220 
     39 N          26.9777   27.5305    4.2262 N.am      6 UNK        -0.4450 
     40 CA         25.5328   27.7728    4.2178 C.3       6 UNK         0.0367 
     41 CB         24.8116   26.5544    3.6226 C.3       6 UNK        -0.1929 
     42 C          25.1272   29.0711    3.4906 C.2       6 UNK         0.5070 
     43 O          23.9708   29.4741    3.6253 O.2       6 UNK        -0.5237 
     44 N          26.0431   29.6993    2.7367 N.am      7 UNK        -0.4739 
     45 CA         25.7697   30.9103    1.9523 C.3       7 UNK         0.0276 
     46 CB         25.5501   30.5182    0.4822 C.3       7 UNK        -0.1927 
     47 C          26.8672   31.9824    2.0533 C.2       7 UNK         0.5013 
     48 O          26.5481   33.1656    1.9253 O.2       7 UNK        -0.5193 
     49 N          28.1255   31.5759    2.2497 N.am      8 UNK        -0.4253 
     50 CA         29.3085   32.4347    2.2651 C.3       8 UNK         0.0242 
     51 CB         30.1053   32.1761    0.9724 C.3       8 UNK        -0.2000 
     52 C          30.1687   32.1318    3.4988 C.2       8 UNK         0.4948 
     53 O          29.9116   31.1650    4.2201 O.2       8 UNK        -0.5275 
     54 N          31.2102   32.9463    3.7103 N.am      9 UNK        -0.4246 
     55 CA         32.2100   32.7828    4.7706 C.3       9 UNK         0.0261 
     56 CB         32.9219   34.1304    4.9960 C.3       9 UNK        -0.1959 
     57 C          33.1937   31.6347    4.4582 C.2       9 UNK         0.5033 
     58 O          34.3859   31.8815    4.2629 O.2       9 UNK        -0.5390 
     59 N          32.6574   30.4076    4.4072 N.am      10 UNK        -0.4215 
     60 CA         33.3169   29.1440    4.0563 C.3       10 UNK         0.0240 
     61 CB         34.4423   28.8091    5.0621 C.3       10 UNK        -0.1982 
     62 C          33.7779   29.0951    2.5853 C.2       10 UNK         0.4970 
     63 O          33.3390   29.9098    1.7704 O.2       10 UNK        -0.4916 
     64 N          34.6061   28.0953    2.2604 N.am      11 UNK        -0.4279 
     65 CA         35.1993   27.8933    0.9315 C.3       11 UNK         0.1003 
     66 C          36.2378   28.9948    0.5858 C.2       11 UNK         0.5709 
     67 N          36.2869   29.4332   -0.6647 N.am      11 UNK        -0.7358 
     68 O          37.0269   29.4190    1.4284 O.2       11 UNK        -0.4999 
     69 C69        35.8337   26.4833    0.8006 C.3       12 UNK        -0.0954 
     70 S70        34.5885   25.1541    0.9003 S.3       12 UNK        -0.2268 
     71 C71        34.8958   24.4279    2.5423 C.3       12 UNK         0.0203 
     72 H72        27.6072   21.1898   -2.2186 H         1 UNK         0.0888 
     73 H73        29.2437   20.7257   -1.7452 H         1 UNK         0.0888 
     74 H74        27.8675   20.2426   -0.7514 H         1 UNK         0.0888 
     75 H75        27.6827   21.4898    1.1117 H         1 UNK         0.3017 
     76 H76        29.2081   23.8351    1.5033 H         1 UNK         0.0873 
     77 H77        26.9488   22.8767    3.3123 H         1 UNK         0.0745 
     78 H78        28.2783   23.9119    3.7533 H         1 UNK         0.0745 
     79 H79        30.5081   21.9214    1.8227 H         1 UNK         0.0705 
     80 H80        31.1188   20.8357    3.0295 H         1 UNK         0.0705 
     81 H81        32.9140   22.6834    1.8532 H         1 UNK         0.1334 
     82 H82        34.0260   25.4697    4.9113 H         1 UNK         0.1417 
     83 H83        30.3711   23.2815    5.2656 H         1 UNK         0.1562 
     84 H84        32.8236   24.9990    7.1700 H         1 UNK         0.0748 
     85 H85        31.1315   24.5878    7.1197 H         1 UNK         0.0748 
     86 H86        29.2411   27.0719    7.0524 H         1 UNK         0.0940 
     87 H87        29.4070   25.8269    5.8415 H         1 UNK         0.0940 
     88 H88        29.8086   28.7897    5.2229 H         1 UNK         0.0703 
     89 H89        30.5066   26.6725    3.7143 H         1 UNK         0.3081 
     90 H90        31.1163   28.3416    1.0263 H         1 UNK         0.0719 
     91 H91        31.8145   25.9270    0.7002 H         1 UNK         0.0809 
     92 H92        32.1017   26.5031    2.3287 H         1 UNK         0.0809 
     93 H93        30.7319   25.4487    1.9939 H         1 UNK         0.0809 
     94 H94        28.6669   26.8159    0.4598 H         1 UNK         0.2990 
     95 H95        28.3364   27.8617   -2.5945 H         1 UNK         0.0690 
     96 H96        30.2092   26.7627   -3.7790 H         1 UNK         0.0788 
     97 H97        28.7432   25.8235   -3.9984 H         1 UNK         0.0788 
     98 H98        29.9739   25.2837   -2.8570 H         1 UNK         0.0788 
     99 H99        27.9879   25.1750   -1.3625 H         1 UNK         0.2993 
    100 H100       25.1014   26.1865    0.3900 H         1 UNK         0.0949 
    101 H101       25.0666   24.3779   -2.0846 H         1 UNK         0.0767 
    102 H102       23.8932   24.3507   -0.7665 H         1 UNK         0.0767 
    103 H103       24.0101   25.7567   -1.8107 H         1 UNK         0.0767 
    104 H104       26.2669   23.6084   -0.0800 H         1 UNK         0.3013 
    105 H105       27.3510   26.9412    3.4876 H         1 UNK         0.3121 
    106 H106       25.1899   27.8715    5.2502 H         1 UNK         0.0774 
    107 H107       25.0580   26.4209    2.5734 H         1 UNK         0.0815 
    108 H108       23.7290   26.6700    3.6892 H         1 UNK         0.0815 
    109 H109       25.0738   25.6373    4.1502 H         1 UNK         0.0815 
    110 H110       26.9800   29.3090    2.6731 H         1 UNK         0.2987 
    111 H111       24.8556   31.3863    2.3141 H         1 UNK         0.0949 
    112 H112       26.4423   30.0574    0.0563 H         1 UNK         0.0806 
    113 H113       24.7264   29.8121    0.3760 H         1 UNK         0.0806 
    114 H114       25.3106   31.3912   -0.1264 H         1 UNK         0.0806 
    115 H115       28.3264   30.5844    2.3793 H         1 UNK         0.3010 
    116 H116       29.0201   33.4869    2.3105 H         1 UNK         0.0829 
    117 H117       29.4971   32.3687    0.0885 H         1 UNK         0.0813 
    118 H118       30.9823   32.8206    0.9048 H         1 UNK         0.0813 
    119 H119       30.4547   31.1434    0.9168 H         1 UNK         0.0813 
    120 H120       31.3751   33.6983    3.0565 H         1 UNK         0.3038 
    121 H121       31.6950   32.5238    5.6985 H         1 UNK         0.0769 
    122 H122       33.4494   34.4647    4.1017 H         1 UNK         0.0811 
    123 H123       33.6571   34.0533    5.7983 H         1 UNK         0.0811 
    124 H124       32.2154   34.9101    5.2810 H         1 UNK         0.0811 
    125 H125       31.6448   30.3690    4.4986 H         1 UNK         0.3204 
    126 H126       32.5485   28.3779    4.1497 H         1 UNK         0.0748 
    127 H127       34.7803   27.7783    4.9613 H         1 UNK         0.0771 
    128 H128       35.3120   29.4535    4.9282 H         1 UNK         0.0771 
    129 H129       34.0973   28.9254    6.0897 H         1 UNK         0.0771 
    130 H130       34.9356   27.4786    2.9854 H         1 UNK         0.2980 
    131 H131       34.3875   27.9638    0.2039 H         1 UNK         0.0545 
    132 H132       36.9665   30.1358   -0.9108 H         1 UNK         0.3459 
    133 H133       35.6527   29.0827   -1.3657 H         1 UNK         0.3459 
    134 H134       36.3237   26.3799   -0.1695 H         1 UNK         0.0616 
    135 H135       36.6155   26.3327    1.5468 H         1 UNK         0.0616 
    136 H136       35.5218   25.0952    3.1355 H         1 UNK         0.0634 
    137 H137       35.4646   23.5054    2.4191 H         1 UNK         0.0634 
@<TRIPOS>BOND
     1    1    2 1    
     2    1   72 1    
     3    1   73 1    
     4    1   74 1    
     5    2    3 2    
     6    2    4 am   BACKBONE|DICT|INTERRES
     7    4    5 1    
     8    4   75 1    
     9    5    6 1    
    10    5   35 1    
    11    5   76 1    
    12    6    7 1    
    13    6   77 1    
    14    6   78 1    
    15    7    8 1    
    16    8    9 1    
    17    8   79 1    
    18    8   80 1    
    19    9   10 ar   
    20    9   14 ar   
    21   10   11 ar   
    22   10   81 1    
    23   11   12 ar   
    24   11   71 1    
    25   12   13 ar   
    26   12   82 1    
    27   13   14 ar   
    28   13   15 1    
    29   14   83 1    
    30   15   16 1    
    31   15   84 1    
    32   15   85 1    
    33   16   17 1    
    34   17   18 1    
    35   17   86 1    
    36   17   87 1    
    37   18   19 1    
    38   18   37 1    
    39   18   88 1    
    40   19   20 am   BACKBONE|DICT|INTERRES
    41   19   89 1    
    42   20   21 2    
    43   20   22 1    
    44   22   23 1    
    45   22   24 1    
    46   22   90 1    
    47   23   91 1    
    48   23   92 1    
    49   23   93 1    
    50   24   25 am   BACKBONE|DICT|INTERRES
    51   24   94 1    
    52   25   26 2    
    53   25   27 1    
    54   27   28 1    
    55   27   29 1    
    56   27   95 1    
    57   28   96 1    
    58   28   97 1    
    59   28   98 1    
    60   29   30 am   BACKBONE|DICT|INTERRES
    61   29   99 1    
    62   30   31 2    
    63   30   32 1    
    64   32   33 1    
    65   32   34 1    
    66   32  100 1    
    67   33  101 1    
    68   33  102 1    
    69   33  103 1    
    70   34   35 am   BACKBONE|DICT|INTERRES
    71   34  104 1    
    72   35   36 2    
    73   37   38 2    
    74   37   39 am   BACKBONE|DICT|INTERRES
    75   39   40 1    
    76   39  105 1    
    77   40   41 1    
    78   40   42 1    
    79   40  106 1    
    80   41  107 1    
    81   41  108 1    
    82   41  109 1    
    83   42   43 2    
    84   42   44 am   BACKBONE|DICT|INTERRES
    85   44   45 1    
    86   44  110 1    
    87   45   46 1    
    88   45   47 1    
    89   45  111 1    
    90   46  112 1    
    91   46  113 1    
    92   46  114 1    
    93   47   48 2    
    94   47   49 am   BACKBONE|DICT|INTERRES
    95   49   50 1    
    96   49  115 1    
    97   50   51 1    
    98   50   52 1    
    99   50  116 1    
   100   51  117 1    
   101   51  118 1    
   102   51  119 1    
   103   52   53 2    
   104   52   54 am   BACKBONE|DICT|INTERRES
   105   54   55 1    
   106   54  120 1    
   107   55   56 1    
   108   55   57 1    
   109   55  121 1    
   110   56  122 1    
   111   56  123 1    
   112   56  124 1    
   113   57   58 2    
   114   57   59 am   BACKBONE|DICT|INTERRES
   115   59   60 1    
   116   59  125 1    
   117   60   61 1    
   118   60   62 1    
   119   60  126 1    
   120   61  127 1    
   121   61  128 1    
   122   61  129 1    
   123   62   63 2    
   124   62   64 am   BACKBONE|DICT|INTERRES
   125   64   65 1    
   126   64  130 1    
   127   65   66 1    
   128   65   69 1    
   129   65  131 1    
   130   66   67 am   BACKBONE|DICT|INTERRES
   131   66   68 2    
   132   67  132 1    
   133   67  133 1    
   134   69   70 1    
   135   69  134 1    
   136   69  135 1    
   137   70   71 1    
   138   71  136 1    
   139   71  137 1    
@<TRIPOS>SUBSTRUCTURE
     1 UNK         1 GROUP             0       ****    0 ROOT    
