@<TRIPOS>MOLECULE
3R136
137   139    1
SMALL
USER_CHARGES


@<TRIPOS>ATOM
      1 CA         26.2132   27.3633    3.9804 C.3       0 UNK        -0.1979 
      2 C          26.6508   25.9071    3.9845 C.2       0 UNK         0.4864 
      3 O          26.0246   25.0870    4.6569 O.2       0 UNK        -0.5359 
      4 N          27.7109   25.5755    3.2328 N.am      1 UNK        -0.4318 
      5 CA         28.1998   24.2031    3.0312 C.3       1 UNK         0.0824 
      6 C6         29.5438   24.1813    2.2653 C.3       12 UNK        -0.0944 
      7 S7         30.9315   24.7925    3.2740 S.3       12 UNK        -0.2672 
      8 C8         32.3602   24.2069    2.3058 C.3       12 UNK         0.0333 
      9 C9         32.6205   25.0819    1.0870 C.ar      12 UNK        -0.0807 
     10 C10        33.5783   26.0995    1.1429 C.ar      12 UNK        -0.0894 
     11 C11        33.8207   26.9066    0.0269 C.ar      12 UNK        -0.0804 
     12 C12        33.0978   26.6906   -1.1499 C.ar      12 UNK        -0.0824 
     13 C13        32.1231   25.6904   -1.2121 C.ar      12 UNK        -0.0762 
     14 C14        31.9057   24.8755   -0.0972 C.ar      12 UNK        -0.0782 
     15 C15        31.2761   25.5129   -2.4678 C.3       12 UNK         0.0230 
     16 S16        30.3222   27.0120   -2.8925 S.3       12 UNK        -0.2608 
     17 C17        29.5834   27.4444   -1.2813 C.3       12 UNK        -0.0989 
     18 CA         28.4497   28.5030   -1.3990 C.3       5 UNK         0.0716 
     19 N          27.2982   28.0742   -2.2059 N.am      5 UNK        -0.4135 
     20 C          26.5668   26.9611   -2.0615 C.2       4 UNK         0.5031 
     21 O          26.8042   26.0595   -1.2514 O.2       4 UNK        -0.5229 
     22 CA         25.3752   26.8219   -3.0214 C.3       4 UNK         0.0329 
     23 CB         25.8469   26.3408   -4.4044 C.3       4 UNK        -0.2001 
     24 N          24.4518   25.8362   -2.4704 N.am      4 UNK        -0.4303 
     25 C          23.1811   26.0503   -2.1110 C.2       3 UNK         0.5044 
     26 O          22.5606   27.0860   -2.3552 O.2       3 UNK        -0.5152 
     27 CA         22.4803   24.9147   -1.3349 C.3       3 UNK         0.0319 
     28 CB         21.5279   24.1385   -2.2592 C.3       3 UNK        -0.2001 
     29 N          23.4191   23.9723   -0.7120 N.am      3 UNK        -0.4354 
     30 C          24.2290   24.2701    0.3142 C.2       2 UNK         0.4964 
     31 O          24.1796   25.3368    0.9320 O.2       2 UNK        -0.5047 
     32 CA         25.2843   23.2176    0.6904 C.3       2 UNK         0.0288 
     33 CB         25.8833   22.4898   -0.5347 C.3       2 UNK        -0.2113 
     34 N          26.3470   23.8808    1.4393 N.am      2 UNK        -0.4145 
     35 C          27.1746   23.2968    2.3129 C.2       1 UNK         0.5006 
     36 O          27.1581   22.0901    2.5649 O.2       1 UNK        -0.5103 
     37 C          28.0318   29.0286   -0.0078 C.2       5 UNK         0.5055 
     38 O          26.9023   28.8226    0.4442 O.2       5 UNK        -0.5220 
     39 N          28.9755   29.7172    0.6470 N.am      6 UNK        -0.4450 
     40 CA         28.8987   30.1226    2.0511 C.3       6 UNK         0.0367 
     41 CB         29.8564   31.3094    2.2710 C.3       6 UNK        -0.1929 
     42 C          29.2439   28.9425    2.9800 C.2       6 UNK         0.5070 
     43 O          29.5102   27.8349    2.5084 O.2       6 UNK        -0.5237 
     44 N          29.2228   29.1912    4.2945 N.am      7 UNK        -0.4739 
     45 CA         29.7322   28.2592    5.3031 C.3       7 UNK         0.0276 
     46 CB         29.1911   28.6656    6.6831 C.3       7 UNK        -0.1927 
     47 C          31.2675   28.2796    5.3106 C.2       7 UNK         0.5013 
     48 O          31.8548   29.3389    5.0779 O.2       7 UNK        -0.5193 
     49 N          31.8917   27.1388    5.6328 N.am      8 UNK        -0.4253 
     50 CA         33.3482   26.9429    5.6353 C.3       8 UNK         0.0242 
     51 CB         33.6713   25.4990    6.0516 C.3       8 UNK        -0.2000 
     52 C          34.1260   27.9365    6.5165 C.2       8 UNK         0.4948 
     53 O          35.2280   28.3369    6.1433 O.2       8 UNK        -0.5275 
     54 N          33.5222   28.3498    7.6397 N.am      9 UNK        -0.4246 
     55 CA         34.0563   29.3643    8.5522 C.3       9 UNK         0.0261 
     56 CB         33.2114   29.3817    9.8367 C.3       9 UNK        -0.1959 
     57 C          34.1311   30.7767    7.9397 C.2       9 UNK         0.5033 
     58 O          34.9744   31.5659    8.3684 O.2       9 UNK        -0.5390 
     59 N          33.2610   31.0725    6.9642 N.am      10 UNK        -0.4215 
     60 CA         33.2544   32.3257    6.2099 C.3       10 UNK         0.0240 
     61 CB         31.8026   32.7355    5.9079 C.3       10 UNK        -0.1982 
     62 C          34.0610   32.1871    4.9107 C.2       10 UNK         0.4970 
     63 O          34.8182   33.0976    4.5726 O.2       10 UNK        -0.4916 
     64 N          33.8770   31.0623    4.2069 N.am      11 UNK        -0.4279 
     65 CA         34.5455   30.7427    2.9401 C.3       11 UNK         0.1003 
     66 C          36.0780   30.5070    3.0661 C.2       11 UNK         0.5709 
     67 N          36.5670   29.9161    4.1494 N.am      11 UNK        -0.7358 
     68 O          36.8375   30.8827    2.1763 O.2       11 UNK        -0.4999 
     69 C69        33.8300   29.5686    2.2218 C.3       12 UNK        -0.0954 
     70 S70        34.0484   29.6283    0.4124 S.3       12 UNK        -0.2268 
     71 C71        34.8472   28.0270    0.0864 C.3       12 UNK         0.0203 
     72 H72        26.6298   27.8889    4.8381 H         1 UNK         0.0888 
     73 H73        26.5283   27.8706    3.0692 H         1 UNK         0.0888 
     74 H74        25.1268   27.4303    4.0337 H         1 UNK         0.0888 
     75 H75        28.2498   26.3046    2.7710 H         1 UNK         0.3017 
     76 H76        28.3587   23.7649    4.0189 H         1 UNK         0.0873 
     77 H77        29.4694   24.7847    1.3590 H         1 UNK         0.0745 
     78 H78        29.7923   23.1665    1.9468 H         1 UNK         0.0745 
     79 H79        33.2390   24.2022    2.9520 H         1 UNK         0.0705 
     80 H80        32.2066   23.1703    2.0022 H         1 UNK         0.0705 
     81 H81        34.1304   26.2658    2.0574 H         1 UNK         0.1334 
     82 H82        33.2675   27.3261   -2.0085 H         1 UNK         0.1417 
     83 H83        31.1625   24.0919   -0.1429 H         1 UNK         0.1562 
     84 H84        30.5785   24.6821   -2.3499 H         1 UNK         0.0748 
     85 H85        31.9246   25.2541   -3.3057 H         1 UNK         0.0748 
     86 H86        30.3937   27.8182   -0.6526 H         1 UNK         0.0940 
     87 H87        29.2321   26.5382   -0.7862 H         1 UNK         0.0940 
     88 H88        28.8597   29.3646   -1.9289 H         1 UNK         0.0703 
     89 H89        27.0025   28.7416   -2.9034 H         1 UNK         0.3081 
     90 H90        24.8881   27.7945   -3.1193 H         1 UNK         0.0719 
     91 H91        26.3727   25.3869   -4.3421 H         1 UNK         0.0809 
     92 H92        25.0060   26.2150   -5.0867 H         1 UNK         0.0809 
     93 H93        26.5289   27.0593   -4.8607 H         1 UNK         0.0809 
     94 H94        24.8938   24.9893   -2.1424 H         1 UNK         0.2990 
     95 H95        21.8878   25.3780   -0.5430 H         1 UNK         0.0690 
     96 H96        20.9721   23.3785   -1.7097 H         1 UNK         0.0788 
     97 H97        22.0648   23.6441   -3.0699 H         1 UNK         0.0788 
     98 H98        20.7954   24.8069   -2.7141 H         1 UNK         0.0788 
     99 H99        23.5109   23.0684   -1.1536 H         1 UNK         0.2993 
    100 H100       24.7941   22.4894    1.3401 H         1 UNK         0.0949 
    101 H101       25.1323   21.9045   -1.0658 H         1 UNK         0.0767 
    102 H102       26.3236   23.1932   -1.2429 H         1 UNK         0.0767 
    103 H103       26.6660   21.7919   -0.2369 H         1 UNK         0.0767 
    104 H104       26.3802   24.8862    1.3196 H         1 UNK         0.3013 
    105 H105       29.8803   29.8213    0.2117 H         1 UNK         0.3121 
    106 H106       27.8799   30.4449    2.2768 H         1 UNK         0.0774 
    107 H107       29.7730   31.7094    3.2817 H         1 UNK         0.0815 
    108 H108       29.6331   32.1292    1.5880 H         1 UNK         0.0815 
    109 H109       30.8976   31.0245    2.1196 H         1 UNK         0.0815 
    110 H110       29.0201   30.1279    4.6110 H         1 UNK         0.2987 
    111 H111       29.3899   27.2492    5.0670 H         1 UNK         0.0949 
    112 H112       29.5270   29.6627    6.9721 H         1 UNK         0.0806 
    113 H113       28.1014   28.6622    6.7011 H         1 UNK         0.0806 
    114 H114       29.5269   27.9724    7.4554 H         1 UNK         0.0806 
    115 H115       31.3320   26.3154    5.8036 H         1 UNK         0.3010 
    116 H116       33.6902   27.0859    4.6083 H         1 UNK         0.0829 
    117 H117       33.3296   25.2843    7.0649 H         1 UNK         0.0813 
    118 H118       33.2067   24.7758    5.3821 H         1 UNK         0.0813 
    119 H119       34.7466   25.3168    6.0245 H         1 UNK         0.0813 
    120 H120       32.6188   27.9602    7.8664 H         1 UNK         0.3038 
    121 H121       35.0745   29.0706    8.8163 H         1 UNK         0.0769 
    122 H122       33.6017   30.1092   10.5500 H         1 UNK         0.0811 
    123 H123       32.1733   29.6489    9.6346 H         1 UNK         0.0811 
    124 H124       33.2197   28.4104   10.3315 H         1 UNK         0.0811 
    125 H125       32.6416   30.3444    6.6250 H         1 UNK         0.3204 
    126 H126       33.7091   33.1208    6.8049 H         1 UNK         0.0748 
    127 H127       31.2799   31.9826    5.3173 H         1 UNK         0.0771 
    128 H128       31.2372   32.8894    6.8271 H         1 UNK         0.0771 
    129 H129       31.7701   33.6705    5.3469 H         1 UNK         0.0771 
    130 H130       33.2011   30.3785    4.5404 H         1 UNK         0.2980 
    131 H131       34.4224   31.6309    2.3167 H         1 UNK         0.0545 
    132 H132       37.5621   29.7811    4.2226 H         1 UNK         0.3459 
    133 H133       35.9592   29.5391    4.8713 H         1 UNK         0.3459 
    134 H134       34.1559   28.6094    2.6254 H         1 UNK         0.0616 
    135 H135       32.7554   29.6074    2.4028 H         1 UNK         0.0616 
    136 H136       35.3761   28.0874   -0.8658 H         1 UNK         0.0634 
    137 H137       35.6065   27.8257    0.8439 H         1 UNK         0.0634 
@<TRIPOS>BOND
     1    1    2 1    
     2    1   72 1    
     3    1   73 1    
     4    1   74 1    
     5    2    3 2    
     6    2    4 am   BACKBONE|DICT|INTERRES
     7    4    5 1    
     8    4   75 1    
     9    5    6 1    
    10    5   35 1    
    11    5   76 1    
    12    6    7 1    
    13    6   77 1    
    14    6   78 1    
    15    7    8 1    
    16    8    9 1    
    17    8   79 1    
    18    8   80 1    
    19    9   10 ar   
    20    9   14 ar   
    21   10   11 ar   
    22   10   81 1    
    23   11   12 ar   
    24   11   71 1    
    25   12   13 ar   
    26   12   82 1    
    27   13   14 ar   
    28   13   15 1    
    29   14   83 1    
    30   15   16 1    
    31   15   84 1    
    32   15   85 1    
    33   16   17 1    
    34   17   18 1    
    35   17   86 1    
    36   17   87 1    
    37   18   19 1    
    38   18   37 1    
    39   18   88 1    
    40   19   20 am   BACKBONE|DICT|INTERRES
    41   19   89 1    
    42   20   21 2    
    43   20   22 1    
    44   22   23 1    
    45   22   24 1    
    46   22   90 1    
    47   23   91 1    
    48   23   92 1    
    49   23   93 1    
    50   24   25 am   BACKBONE|DICT|INTERRES
    51   24   94 1    
    52   25   26 2    
    53   25   27 1    
    54   27   28 1    
    55   27   29 1    
    56   27   95 1    
    57   28   96 1    
    58   28   97 1    
    59   28   98 1    
    60   29   30 am   BACKBONE|DICT|INTERRES
    61   29   99 1    
    62   30   31 2    
    63   30   32 1    
    64   32   33 1    
    65   32   34 1    
    66   32  100 1    
    67   33  101 1    
    68   33  102 1    
    69   33  103 1    
    70   34   35 am   BACKBONE|DICT|INTERRES
    71   34  104 1    
    72   35   36 2    
    73   37   38 2    
    74   37   39 am   BACKBONE|DICT|INTERRES
    75   39   40 1    
    76   39  105 1    
    77   40   41 1    
    78   40   42 1    
    79   40  106 1    
    80   41  107 1    
    81   41  108 1    
    82   41  109 1    
    83   42   43 2    
    84   42   44 am   BACKBONE|DICT|INTERRES
    85   44   45 1    
    86   44  110 1    
    87   45   46 1    
    88   45   47 1    
    89   45  111 1    
    90   46  112 1    
    91   46  113 1    
    92   46  114 1    
    93   47   48 2    
    94   47   49 am   BACKBONE|DICT|INTERRES
    95   49   50 1    
    96   49  115 1    
    97   50   51 1    
    98   50   52 1    
    99   50  116 1    
   100   51  117 1    
   101   51  118 1    
   102   51  119 1    
   103   52   53 2    
   104   52   54 am   BACKBONE|DICT|INTERRES
   105   54   55 1    
   106   54  120 1    
   107   55   56 1    
   108   55   57 1    
   109   55  121 1    
   110   56  122 1    
   111   56  123 1    
   112   56  124 1    
   113   57   58 2    
   114   57   59 am   BACKBONE|DICT|INTERRES
   115   59   60 1    
   116   59  125 1    
   117   60   61 1    
   118   60   62 1    
   119   60  126 1    
   120   61  127 1    
   121   61  128 1    
   122   61  129 1    
   123   62   63 2    
   124   62   64 am   BACKBONE|DICT|INTERRES
   125   64   65 1    
   126   64  130 1    
   127   65   66 1    
   128   65   69 1    
   129   65  131 1    
   130   66   67 am   BACKBONE|DICT|INTERRES
   131   66   68 2    
   132   67  132 1    
   133   67  133 1    
   134   69   70 1    
   135   69  134 1    
   136   69  135 1    
   137   70   71 1    
   138   71  136 1    
   139   71  137 1    
@<TRIPOS>SUBSTRUCTURE
     1 UNK         1 GROUP             0       ****    0 ROOT    
