@<TRIPOS>MOLECULE
3R136
137   139    1
SMALL
USER_CHARGES


@<TRIPOS>ATOM
      1 CA         26.0444   19.8207   -0.0283 C.3       0 UNK        -0.1979 
      2 C          27.1241   20.8864    0.0948 C.2       0 UNK         0.4864 
      3 O          26.7971   22.0696    0.1817 O.2       0 UNK        -0.5359 
      4 N          28.3972   20.4643    0.1080 N.am      1 UNK        -0.4318 
      5 CA         29.6063   21.2978    0.1704 C.3       1 UNK         0.0824 
      6 C6         29.6690   22.1875    1.4478 C.3       12 UNK        -0.0944 
      7 S7         31.3799   22.4826    2.0152 S.3       12 UNK        -0.2672 
      8 C8         31.2000   22.3988    3.8252 C.3       12 UNK         0.0333 
      9 C9         30.4550   23.6048    4.3808 C.ar      12 UNK        -0.0807 
     10 C10        31.0477   24.8707    4.3401 C.ar      12 UNK        -0.0894 
     11 C11        30.3767   25.9842    4.8514 C.ar      12 UNK        -0.0804 
     12 C12        29.1250   25.8187    5.4502 C.ar      12 UNK        -0.0824 
     13 C13        28.5066   24.5654    5.4693 C.ar      12 UNK        -0.0762 
     14 C14        29.1790   23.4599    4.9365 C.ar      12 UNK        -0.0782 
     15 C15        27.1088   24.4066    6.0530 C.3       12 UNK         0.0230 
     16 S16        25.8155   24.6043    4.7803 S.3       12 UNK        -0.2608 
     17 C17        25.6282   26.4203    4.6757 C.3       12 UNK        -0.0989 
     18 CA         26.4841   27.0485    3.5452 C.3       5 UNK         0.0716 
     19 N          26.1789   26.5329    2.2115 N.am      5 UNK        -0.4135 
     20 C          25.1114   26.7660    1.4415 C.2       4 UNK         0.5031 
     21 O          24.1559   27.4692    1.7750 O.2       4 UNK        -0.5229 
     22 CA         25.1358   26.0987    0.0477 C.3       4 UNK         0.0329 
     23 CB         23.8831   26.4253   -0.7876 C.3       4 UNK        -0.2001 
     24 N          26.3306   26.4391   -0.7385 N.am      4 UNK        -0.4303 
     25 C          27.5684   25.9801   -0.5125 C.2       3 UNK         0.5044 
     26 O          27.8672   25.2520    0.4375 O.2       3 UNK        -0.5152 
     27 CA         28.6696   26.4379   -1.4718 C.3       3 UNK         0.0319 
     28 CB         29.2695   27.7786   -1.0140 C.3       3 UNK        -0.2001 
     29 N          29.6998   25.4069   -1.4534 N.am      3 UNK        -0.4354 
     30 C          30.4132   24.9783   -2.4988 C.2       2 UNK         0.4964 
     31 O          30.3716   25.4957   -3.6157 O.2       2 UNK        -0.5047 
     32 CA         31.3220   23.7567   -2.2680 C.3       2 UNK         0.0288 
     33 CB         32.7763   24.1995   -2.0434 C.3       2 UNK        -0.2113 
     34 N          30.9010   22.9220   -1.1378 N.am      2 UNK        -0.4145 
     35 C          29.8570   22.0821   -1.1428 C.2       1 UNK         0.5006 
     36 O          29.1518   21.8906   -2.1379 O.2       1 UNK        -0.5103 
     37 C          26.5021   28.5894    3.5746 C.2       5 UNK         0.5055 
     38 O          25.6431   29.2179    4.1981 O.2       5 UNK        -0.5220 
     39 N          27.4916   29.1605    2.8768 N.am      6 UNK        -0.4450 
     40 CA         27.7984   30.5903    2.8583 C.3       6 UNK         0.0367 
     41 CB         28.6291   30.8931    1.5958 C.3       6 UNK        -0.1929 
     42 C          28.5230   31.0401    4.1455 C.2       6 UNK         0.5070 
     43 O          28.7285   30.2468    5.0684 O.2       6 UNK        -0.5237 
     44 N          28.8938   32.3252    4.1893 N.am      7 UNK        -0.4739 
     45 CA         29.5894   32.9800    5.2996 C.3       7 UNK         0.0276 
     46 CB         29.5034   34.5048    5.0993 C.3       7 UNK        -0.1927 
     47 C          31.0464   32.5013    5.4719 C.2       7 UNK         0.5013 
     48 O          31.9754   33.2209    5.0968 O.2       7 UNK        -0.5193 
     49 N          31.2106   31.2988    6.0418 N.am      8 UNK        -0.4253 
     50 CA         32.4615   30.6638    6.4779 C.3       8 UNK         0.0242 
     51 CB         32.9854   31.3484    7.7601 C.3       8 UNK        -0.2000 
     52 C          33.5114   30.5847    5.3556 C.2       8 UNK         0.4948 
     53 O          33.4239   29.6942    4.5118 O.2       8 UNK        -0.5275 
     54 N          34.4585   31.5344    5.3349 N.am      9 UNK        -0.4246 
     55 CA         35.4891   31.6908    4.3027 C.3       9 UNK         0.0261 
     56 CB         36.3993   32.8733    4.6701 C.3       9 UNK        -0.1959 
     57 C          34.9303   31.8637    2.8775 C.2       9 UNK         0.5033 
     58 O          35.6111   31.4936    1.9195 O.2       9 UNK        -0.5390 
     59 N          33.6905   32.3644    2.7568 N.am      10 UNK        -0.4215 
     60 CA         32.9406   32.4493    1.5002 C.3       10 UNK         0.0240 
     61 CB         31.6341   33.2202    1.7391 C.3       10 UNK        -0.1982 
     62 C          32.6498   31.0844    0.8424 C.2       10 UNK         0.4970 
     63 O          32.3982   31.0570   -0.3627 O.2       10 UNK        -0.4916 
     64 N          32.7047   29.9863    1.6122 N.am      11 UNK        -0.4279 
     65 CA         32.6357   28.6114    1.0908 C.3       11 UNK         0.1003 
     66 C          33.9300   28.1506    0.3563 C.2       11 UNK         0.5709 
     67 N          35.0415   28.8771    0.4226 N.am      11 UNK        -0.7358 
     68 O          33.9232   27.1125   -0.2988 O.2       11 UNK        -0.4999 
     69 C69        32.2235   27.5809    2.1778 C.3       12 UNK        -0.0954 
     70 S70        30.6907   28.0433    3.0514 S.3       12 UNK        -0.2268 
     71 C71        30.9800   27.3727    4.7203 C.3       12 UNK         0.0203 
     72 H72        25.3763   19.8631    0.8315 H         1 UNK         0.0888 
     73 H73        25.4533   19.9892   -0.9281 H         1 UNK         0.0888 
     74 H74        26.4644   18.8165   -0.0818 H         1 UNK         0.0888 
     75 H75        28.5754   19.4751    0.0039 H         1 UNK         0.3017 
     76 H76        30.4196   20.5725    0.2295 H         1 UNK         0.0873 
     77 H77        29.1294   21.6982    2.2601 H         1 UNK         0.0745 
     78 H78        29.1641   23.1431    1.3005 H         1 UNK         0.0745 
     79 H79        30.7056   21.4662    4.1015 H         1 UNK         0.0705 
     80 H80        32.1938   22.3601    4.2734 H         1 UNK         0.0705 
     81 H81        32.0207   24.9930    3.8843 H         1 UNK         0.1334 
     82 H82        28.6078   26.6781    5.8551 H         1 UNK         0.1417 
     83 H83        28.7055   22.4876    4.9524 H         1 UNK         0.1562 
     84 H84        26.9477   25.1135    6.8681 H         1 UNK         0.0748 
     85 H85        27.0101   23.4141    6.4952 H         1 UNK         0.0748 
     86 H86        25.8850   26.8592    5.6415 H         1 UNK         0.0940 
     87 H87        24.5723   26.6467    4.5170 H         1 UNK         0.0940 
     88 H88        27.5157   26.7497    3.7064 H         1 UNK         0.0703 
     89 H89        26.9003   25.9445    1.7971 H         1 UNK         0.3081 
     90 H90        25.1427   25.0196    0.2191 H         1 UNK         0.0719 
     91 H91        23.8090   27.4917   -1.0043 H         1 UNK         0.0809 
     92 H92        23.8864   25.8880   -1.7361 H         1 UNK         0.0809 
     93 H93        22.9738   26.1357   -0.2589 H         1 UNK         0.0809 
     94 H94        26.1859   27.0698   -1.5140 H         1 UNK         0.2990 
     95 H95        28.2510   26.5356   -2.4758 H         1 UNK         0.0690 
     96 H96        30.1037   28.0783   -1.6487 H         1 UNK         0.0788 
     97 H97        29.6324   27.7246    0.0132 H         1 UNK         0.0788 
     98 H98        28.5264   28.5756   -1.0564 H         1 UNK         0.0788 
     99 H99        29.7383   24.8875   -0.5851 H         1 UNK         0.2993 
    100 H100       31.2855   23.1508   -3.1761 H         1 UNK         0.0949 
    101 H101       33.4481   23.3427   -1.9879 H         1 UNK         0.0767 
    102 H102       33.1256   24.8325   -2.8605 H         1 UNK         0.0767 
    103 H103       32.8833   24.7702   -1.1204 H         1 UNK         0.0767 
    104 H104       31.4307   23.0104   -0.2793 H         1 UNK         0.3013 
    105 H105       28.1849   28.5587    2.4557 H         1 UNK         0.3121 
    106 H106       26.8589   31.1435    2.7958 H         1 UNK         0.0774 
    107 H107       28.7523   31.9657    1.4458 H         1 UNK         0.0815 
    108 H108       29.6255   30.4538    1.6486 H         1 UNK         0.0815 
    109 H109       28.1429   30.5068    0.6999 H         1 UNK         0.0815 
    110 H110       28.6890   32.9095    3.3919 H         1 UNK         0.2987 
    111 H111       29.0585   32.7397    6.2237 H         1 UNK         0.0949 
    112 H112       29.9769   34.8192    4.1682 H         1 UNK         0.0806 
    113 H113       28.4683   34.8463    5.0822 H         1 UNK         0.0806 
    114 H114       30.0031   35.0335    5.9122 H         1 UNK         0.0806 
    115 H115       30.3690   30.7408    6.1522 H         1 UNK         0.3010 
    116 H116       32.2138   29.6325    6.7338 H         1 UNK         0.0829 
    117 H117       32.2734   31.2361    8.5778 H         1 UNK         0.0813 
    118 H118       33.9234   30.9007    8.0919 H         1 UNK         0.0813 
    119 H119       33.1561   32.4168    7.6229 H         1 UNK         0.0813 
    120 H120       34.4186   32.2510    6.0452 H         1 UNK         0.3038 
    121 H121       36.0906   30.7794    4.3040 H         1 UNK         0.0769 
    122 H122       35.8438   33.8111    4.7149 H         1 UNK         0.0811 
    123 H123       37.1925   32.9992    3.9316 H         1 UNK         0.0811 
    124 H124       36.8809   32.7200    5.6361 H         1 UNK         0.0811 
    125 H125       33.1998   32.6472    3.6015 H         1 UNK         0.3204 
    126 H126       33.5490   33.0212    0.7966 H         1 UNK         0.0748 
    127 H127       31.0811   33.3541    0.8083 H         1 UNK         0.0771 
    128 H128       30.9848   32.6882    2.4319 H         1 UNK         0.0771 
    129 H129       31.8244   34.2117    2.1505 H         1 UNK         0.0771 
    130 H130       32.9177   30.0657    2.6017 H         1 UNK         0.2980 
    131 H131       31.8524   28.5986    0.3320 H         1 UNK         0.0545 
    132 H132       35.8622   28.5575   -0.0662 H         1 UNK         0.3459 
    133 H133       35.0767   29.7411    0.9509 H         1 UNK         0.3459 
    134 H134       33.0312   27.4654    2.9019 H         1 UNK         0.0616 
    135 H135       32.0657   26.5965    1.7330 H         1 UNK         0.0616 
    136 H136       32.0447   27.3492    4.9542 H         1 UNK         0.0634 
    137 H137       30.5266   28.0508    5.4446 H         1 UNK         0.0634 
@<TRIPOS>BOND
     1    1    2 1    
     2    1   72 1    
     3    1   73 1    
     4    1   74 1    
     5    2    3 2    
     6    2    4 am   BACKBONE|DICT|INTERRES
     7    4    5 1    
     8    4   75 1    
     9    5    6 1    
    10    5   35 1    
    11    5   76 1    
    12    6    7 1    
    13    6   77 1    
    14    6   78 1    
    15    7    8 1    
    16    8    9 1    
    17    8   79 1    
    18    8   80 1    
    19    9   10 ar   
    20    9   14 ar   
    21   10   11 ar   
    22   10   81 1    
    23   11   12 ar   
    24   11   71 1    
    25   12   13 ar   
    26   12   82 1    
    27   13   14 ar   
    28   13   15 1    
    29   14   83 1    
    30   15   16 1    
    31   15   84 1    
    32   15   85 1    
    33   16   17 1    
    34   17   18 1    
    35   17   86 1    
    36   17   87 1    
    37   18   19 1    
    38   18   37 1    
    39   18   88 1    
    40   19   20 am   BACKBONE|DICT|INTERRES
    41   19   89 1    
    42   20   21 2    
    43   20   22 1    
    44   22   23 1    
    45   22   24 1    
    46   22   90 1    
    47   23   91 1    
    48   23   92 1    
    49   23   93 1    
    50   24   25 am   BACKBONE|DICT|INTERRES
    51   24   94 1    
    52   25   26 2    
    53   25   27 1    
    54   27   28 1    
    55   27   29 1    
    56   27   95 1    
    57   28   96 1    
    58   28   97 1    
    59   28   98 1    
    60   29   30 am   BACKBONE|DICT|INTERRES
    61   29   99 1    
    62   30   31 2    
    63   30   32 1    
    64   32   33 1    
    65   32   34 1    
    66   32  100 1    
    67   33  101 1    
    68   33  102 1    
    69   33  103 1    
    70   34   35 am   BACKBONE|DICT|INTERRES
    71   34  104 1    
    72   35   36 2    
    73   37   38 2    
    74   37   39 am   BACKBONE|DICT|INTERRES
    75   39   40 1    
    76   39  105 1    
    77   40   41 1    
    78   40   42 1    
    79   40  106 1    
    80   41  107 1    
    81   41  108 1    
    82   41  109 1    
    83   42   43 2    
    84   42   44 am   BACKBONE|DICT|INTERRES
    85   44   45 1    
    86   44  110 1    
    87   45   46 1    
    88   45   47 1    
    89   45  111 1    
    90   46  112 1    
    91   46  113 1    
    92   46  114 1    
    93   47   48 2    
    94   47   49 am   BACKBONE|DICT|INTERRES
    95   49   50 1    
    96   49  115 1    
    97   50   51 1    
    98   50   52 1    
    99   50  116 1    
   100   51  117 1    
   101   51  118 1    
   102   51  119 1    
   103   52   53 2    
   104   52   54 am   BACKBONE|DICT|INTERRES
   105   54   55 1    
   106   54  120 1    
   107   55   56 1    
   108   55   57 1    
   109   55  121 1    
   110   56  122 1    
   111   56  123 1    
   112   56  124 1    
   113   57   58 2    
   114   57   59 am   BACKBONE|DICT|INTERRES
   115   59   60 1    
   116   59  125 1    
   117   60   61 1    
   118   60   62 1    
   119   60  126 1    
   120   61  127 1    
   121   61  128 1    
   122   61  129 1    
   123   62   63 2    
   124   62   64 am   BACKBONE|DICT|INTERRES
   125   64   65 1    
   126   64  130 1    
   127   65   66 1    
   128   65   69 1    
   129   65  131 1    
   130   66   67 am   BACKBONE|DICT|INTERRES
   131   66   68 2    
   132   67  132 1    
   133   67  133 1    
   134   69   70 1    
   135   69  134 1    
   136   69  135 1    
   137   70   71 1    
   138   71  136 1    
   139   71  137 1    
@<TRIPOS>SUBSTRUCTURE
     1 UNK         1 GROUP             0       ****    0 ROOT    
