@<TRIPOS>MOLECULE
3R136
137   139    1
SMALL
USER_CHARGES


@<TRIPOS>ATOM
      1 CA         26.3289   21.0990    4.6219 C.3       0 UNK        -0.1979 
      2 C          26.6719   22.2062    3.6369 C.2       0 UNK         0.4864 
      3 O          26.1815   23.3260    3.7840 O.2       0 UNK        -0.5359 
      4 N          27.4875   21.8939    2.6192 N.am      1 UNK        -0.4318 
      5 CA         28.0487   22.7849    1.5836 C.3       1 UNK         0.0824 
      6 C6         28.9230   23.9382    2.1468 C.3       12 UNK        -0.0944 
      7 S7         30.2077   23.3396    3.3008 S.3       12 UNK        -0.2672 
      8 C8         31.6628   23.2033    2.2188 C.3       12 UNK         0.0333 
      9 C9         32.2990   24.5598    1.9595 C.ar      12 UNK        -0.0807 
     10 C10        33.0541   25.1788    2.9613 C.ar      12 UNK        -0.0894 
     11 C11        33.6487   26.4232    2.7345 C.ar      12 UNK        -0.0804 
     12 C12        33.4899   27.0407    1.4906 C.ar      12 UNK        -0.0824 
     13 C13        32.7435   26.4297    0.4801 C.ar      12 UNK        -0.0762 
     14 C14        32.1475   25.1885    0.7196 C.ar      12 UNK        -0.0782 
     15 C15        32.5997   27.1122   -0.8708 C.3       12 UNK         0.0230 
     16 S16        31.3397   28.4213   -0.8250 S.3       12 UNK        -0.2608 
     17 C17        29.8046   27.4436   -0.8944 C.3       12 UNK        -0.0989 
     18 CA         28.5540   28.3540   -1.0468 C.3       5 UNK         0.0716 
     19 N          27.5068   27.7171   -1.8411 N.am      5 UNK        -0.4135 
     20 C          27.4312   27.7439   -3.1782 C.2       4 UNK         0.5031 
     21 O          28.2793   28.2755   -3.8967 O.2       4 UNK        -0.5229 
     22 CA         26.2184   27.0661   -3.8493 C.3       4 UNK         0.0329 
     23 CB         26.6387   25.7342   -4.4930 C.3       4 UNK        -0.2001 
     24 N          25.1039   26.8141   -2.9356 N.am      4 UNK        -0.4303 
     25 C          24.3447   27.7531   -2.3548 C.2       3 UNK         0.5044 
     26 O          24.4073   28.9497   -2.6387 O.2       3 UNK        -0.5152 
     27 CA         23.3629   27.2886   -1.2593 C.3       3 UNK         0.0319 
     28 CB         21.9092   27.4502   -1.7347 C.3       3 UNK        -0.2001 
     29 N          23.5576   25.9086   -0.7905 N.am      3 UNK        -0.4354 
     30 C          24.6483   25.4287   -0.1739 C.2       2 UNK         0.4964 
     31 O          25.6563   26.1027    0.0461 O.2       2 UNK        -0.5047 
     32 CA         24.5782   23.9487    0.2458 C.3       2 UNK         0.0288 
     33 CB         24.2899   23.0173   -0.9534 C.3       2 UNK        -0.2113 
     34 N          25.7595   23.4952    0.9898 N.am      2 UNK        -0.4145 
     35 C          27.0167   23.3142    0.5589 C.2       1 UNK         0.5006 
     36 O          27.3833   23.5086   -0.6019 O.2       1 UNK        -0.5103 
     37 C          27.9518   28.8414    0.2871 C.2       5 UNK         0.5055 
     38 O          26.7350   29.0226    0.3795 O.2       5 UNK        -0.5220 
     39 N          28.8040   29.0603    1.2940 N.am      6 UNK        -0.4450 
     40 CA         28.4173   29.3937    2.6602 C.3       6 UNK         0.0367 
     41 CB         28.4760   30.9169    2.8744 C.3       6 UNK        -0.1929 
     42 C          29.3692   28.6381    3.5890 C.2       6 UNK         0.5070 
     43 O          30.5472   28.9965    3.6624 O.2       6 UNK        -0.5237 
     44 N          28.8492   27.5866    4.2385 N.am      7 UNK        -0.4739 
     45 CA         29.5805   26.6683    5.1177 C.3       7 UNK         0.0276 
     46 CB         28.5962   25.6616    5.7372 C.3       7 UNK        -0.1927 
     47 C          30.3524   27.4055    6.2219 C.2       7 UNK         0.5013 
     48 O          29.7490   28.1855    6.9634 O.2       7 UNK        -0.5193 
     49 N          31.6718   27.1774    6.2724 N.am      8 UNK        -0.4253 
     50 CA         32.6843   27.8348    7.1126 C.3       8 UNK         0.0242 
     51 CB         32.4147   27.6168    8.6143 C.3       8 UNK        -0.2000 
     52 C          32.8947   29.3275    6.7947 C.2       8 UNK         0.4948 
     53 O          34.0416   29.7505    6.6595 O.2       8 UNK        -0.5275 
     54 N          31.8030   30.0909    6.6609 N.am      9 UNK        -0.4246 
     55 CA         31.7721   31.5348    6.4174 C.3       9 UNK         0.0261 
     56 CB         30.3122   32.0097    6.3625 C.3       9 UNK        -0.1959 
     57 C          32.5364   31.9815    5.1608 C.2       9 UNK         0.5033 
     58 O          33.2627   32.9748    5.2247 O.2       9 UNK        -0.5390 
     59 N          32.4059   31.2295    4.0577 N.am      10 UNK        -0.4215 
     60 CA         33.1273   31.4901    2.8062 C.3       10 UNK         0.0240 
     61 CB         32.4669   30.7048    1.6635 C.3       10 UNK        -0.1982 
     62 C          34.6389   31.1926    2.8749 C.2       10 UNK         0.4970 
     63 O          35.3702   31.6352    1.9882 O.2       10 UNK        -0.4916 
     64 N          35.0807   30.4659    3.9087 N.am      11 UNK        -0.4279 
     65 CA         36.4879   30.1422    4.1832 C.3       11 UNK         0.1003 
     66 C          37.1514   31.1308    5.1865 C.2       11 UNK         0.5709 
     67 N          36.4595   32.1495    5.6873 N.am      11 UNK        -0.7358 
     68 O          38.3308   30.9872    5.5006 O.2       11 UNK        -0.4999 
     69 C69        36.6506   28.6630    4.6312 C.3       12 UNK        -0.0954 
     70 S70        36.1452   27.4845    3.3334 S.3       12 UNK        -0.2268 
     71 C71        34.4341   27.1186    3.8365 C.3       12 UNK         0.0203 
     72 H72        26.8195   20.1596    4.3678 H         1 UNK         0.0888 
     73 H73        25.2529   20.9280    4.6351 H         1 UNK         0.0888 
     74 H74        26.6418   21.3835    5.6262 H         1 UNK         0.0888 
     75 H75        27.8123   20.9392    2.5541 H         1 UNK         0.3017 
     76 H76        28.7147   22.1420    1.0056 H         1 UNK         0.0873 
     77 H77        28.3032   24.6650    2.6731 H         1 UNK         0.0745 
     78 H78        29.3984   24.4908    1.3352 H         1 UNK         0.0745 
     79 H79        32.3945   22.5504    2.6969 H         1 UNK         0.0705 
     80 H80        31.3822   22.7133    1.2852 H         1 UNK         0.0705 
     81 H81        33.1699   24.6893    3.9187 H         1 UNK         0.1334 
     82 H82        33.9541   28.0000    1.3072 H         1 UNK         0.1417 
     83 H83        31.5701   24.7109   -0.0604 H         1 UNK         0.1562 
     84 H84        32.3579   26.3896   -1.6518 H         1 UNK         0.0748 
     85 H85        33.5550   27.5563   -1.1547 H         1 UNK         0.0748 
     86 H86        29.7289   26.7859   -0.0260 H         1 UNK         0.0940 
     87 H87        29.8928   26.7802   -1.7565 H         1 UNK         0.0940 
     88 H88        28.8418   29.2670   -1.5730 H         1 UNK         0.0703 
     89 H89        26.7564   27.2985   -1.2984 H         1 UNK         0.3081 
     90 H90        25.8654   27.7348   -4.6371 H         1 UNK         0.0719 
     91 H91        26.9901   25.0192   -3.7473 H         1 UNK         0.0809 
     92 H92        25.8119   25.2761   -5.0362 H         1 UNK         0.0809 
     93 H93        27.4493   25.8841   -5.2077 H         1 UNK         0.0809 
     94 H94        24.9736   25.8588   -2.6372 H         1 UNK         0.2990 
     95 H95        23.5177   27.9476   -0.4023 H         1 UNK         0.0690 
     96 H96        21.2017   27.2223   -0.9371 H         1 UNK         0.0788 
     97 H97        21.6867   26.7980   -2.5802 H         1 UNK         0.0788 
     98 H98        21.7123   28.4749   -2.0536 H         1 UNK         0.0788 
     99 H99        22.7779   25.2826   -0.9342 H         1 UNK         0.2993 
    100 H100       23.7445   23.8658    0.9450 H         1 UNK         0.0949 
    101 H101       23.3084   23.2128   -1.3861 H         1 UNK         0.0767 
    102 H102       25.0244   23.1384   -1.7504 H         1 UNK         0.0767 
    103 H103       24.2983   21.9701   -0.6503 H         1 UNK         0.0767 
    104 H104       25.6299   23.3917    1.9936 H         1 UNK         0.3013 
    105 H105       29.7918   28.8857    1.1498 H         1 UNK         0.3121 
    106 H106       27.3959   29.0576    2.8536 H         1 UNK         0.0774 
    107 H107       27.8395   31.4404    2.1611 H         1 UNK         0.0815 
    108 H108       29.4871   31.3098    2.7700 H         1 UNK         0.0815 
    109 H109       28.1231   31.1785    3.8719 H         1 UNK         0.0815 
    110 H110       27.8673   27.3873    4.1147 H         1 UNK         0.2987 
    111 H111       30.2883   26.1221    4.4907 H         1 UNK         0.0949 
    112 H112       27.8568   26.1562    6.3685 H         1 UNK         0.0806 
    113 H113       28.0594   25.0989    4.9743 H         1 UNK         0.0806 
    114 H114       29.1224   24.9356    6.3583 H         1 UNK         0.0806 
    115 H115       32.0471   26.5338    5.5909 H         1 UNK         0.3010 
    116 H116       33.6267   27.3354    6.8835 H         1 UNK         0.0829 
    117 H117       32.3297   26.5564    8.8517 H         1 UNK         0.0813 
    118 H118       33.2309   28.0190    9.2159 H         1 UNK         0.0813 
    119 H119       31.4996   28.1086    8.9451 H         1 UNK         0.0813 
    120 H120       30.9066   29.6221    6.7744 H         1 UNK         0.3038 
    121 H121       32.2523   32.0126    7.2737 H         1 UNK         0.0769 
    122 H122       29.7580   31.5048    5.5718 H         1 UNK         0.0811 
    123 H123       30.2539   33.0824    6.1726 H         1 UNK         0.0811 
    124 H124       29.7979   31.8191    7.3046 H         1 UNK         0.0811 
    125 H125       31.7849   30.4216    4.0703 H         1 UNK         0.3204 
    126 H126       33.0295   32.5533    2.5764 H         1 UNK         0.0748 
    127 H127       32.4195   29.6401    1.8860 H         1 UNK         0.0771 
    128 H128       31.4506   31.0505    1.4794 H         1 UNK         0.0771 
    129 H129       33.0173   30.8206    0.7287 H         1 UNK         0.0771 
    130 H130       34.4334   30.2007    4.6408 H         1 UNK         0.2980 
    131 H131       37.0597   30.2565    3.2607 H         1 UNK         0.0545 
    132 H132       36.9109   32.7814    6.3290 H         1 UNK         0.3459 
    133 H133       35.4883   32.2861    5.4445 H         1 UNK         0.3459 
    134 H134       37.6952   28.4477    4.8623 H         1 UNK         0.0616 
    135 H135       36.0931   28.4654    5.5478 H         1 UNK         0.0616 
    136 H136       33.9138   28.0403    4.0956 H         1 UNK         0.0634 
    137 H137       34.4632   26.5082    4.7397 H         1 UNK         0.0634 
@<TRIPOS>BOND
     1    1    2 1    
     2    1   72 1    
     3    1   73 1    
     4    1   74 1    
     5    2    3 2    
     6    2    4 am   BACKBONE|DICT|INTERRES
     7    4    5 1    
     8    4   75 1    
     9    5    6 1    
    10    5   35 1    
    11    5   76 1    
    12    6    7 1    
    13    6   77 1    
    14    6   78 1    
    15    7    8 1    
    16    8    9 1    
    17    8   79 1    
    18    8   80 1    
    19    9   10 ar   
    20    9   14 ar   
    21   10   11 ar   
    22   10   81 1    
    23   11   12 ar   
    24   11   71 1    
    25   12   13 ar   
    26   12   82 1    
    27   13   14 ar   
    28   13   15 1    
    29   14   83 1    
    30   15   16 1    
    31   15   84 1    
    32   15   85 1    
    33   16   17 1    
    34   17   18 1    
    35   17   86 1    
    36   17   87 1    
    37   18   19 1    
    38   18   37 1    
    39   18   88 1    
    40   19   20 am   BACKBONE|DICT|INTERRES
    41   19   89 1    
    42   20   21 2    
    43   20   22 1    
    44   22   23 1    
    45   22   24 1    
    46   22   90 1    
    47   23   91 1    
    48   23   92 1    
    49   23   93 1    
    50   24   25 am   BACKBONE|DICT|INTERRES
    51   24   94 1    
    52   25   26 2    
    53   25   27 1    
    54   27   28 1    
    55   27   29 1    
    56   27   95 1    
    57   28   96 1    
    58   28   97 1    
    59   28   98 1    
    60   29   30 am   BACKBONE|DICT|INTERRES
    61   29   99 1    
    62   30   31 2    
    63   30   32 1    
    64   32   33 1    
    65   32   34 1    
    66   32  100 1    
    67   33  101 1    
    68   33  102 1    
    69   33  103 1    
    70   34   35 am   BACKBONE|DICT|INTERRES
    71   34  104 1    
    72   35   36 2    
    73   37   38 2    
    74   37   39 am   BACKBONE|DICT|INTERRES
    75   39   40 1    
    76   39  105 1    
    77   40   41 1    
    78   40   42 1    
    79   40  106 1    
    80   41  107 1    
    81   41  108 1    
    82   41  109 1    
    83   42   43 2    
    84   42   44 am   BACKBONE|DICT|INTERRES
    85   44   45 1    
    86   44  110 1    
    87   45   46 1    
    88   45   47 1    
    89   45  111 1    
    90   46  112 1    
    91   46  113 1    
    92   46  114 1    
    93   47   48 2    
    94   47   49 am   BACKBONE|DICT|INTERRES
    95   49   50 1    
    96   49  115 1    
    97   50   51 1    
    98   50   52 1    
    99   50  116 1    
   100   51  117 1    
   101   51  118 1    
   102   51  119 1    
   103   52   53 2    
   104   52   54 am   BACKBONE|DICT|INTERRES
   105   54   55 1    
   106   54  120 1    
   107   55   56 1    
   108   55   57 1    
   109   55  121 1    
   110   56  122 1    
   111   56  123 1    
   112   56  124 1    
   113   57   58 2    
   114   57   59 am   BACKBONE|DICT|INTERRES
   115   59   60 1    
   116   59  125 1    
   117   60   61 1    
   118   60   62 1    
   119   60  126 1    
   120   61  127 1    
   121   61  128 1    
   122   61  129 1    
   123   62   63 2    
   124   62   64 am   BACKBONE|DICT|INTERRES
   125   64   65 1    
   126   64  130 1    
   127   65   66 1    
   128   65   69 1    
   129   65  131 1    
   130   66   67 am   BACKBONE|DICT|INTERRES
   131   66   68 2    
   132   67  132 1    
   133   67  133 1    
   134   69   70 1    
   135   69  134 1    
   136   69  135 1    
   137   70   71 1    
   138   71  136 1    
   139   71  137 1    
@<TRIPOS>SUBSTRUCTURE
     1 UNK         1 GROUP             0       ****    0 ROOT    
