@<TRIPOS>MOLECULE
3R136
137   139    1
SMALL
USER_CHARGES


@<TRIPOS>ATOM
      1 CA         28.5371   19.2572    1.3119 C.3       0 UNK        -0.1979 
      2 C          29.2038   20.5914    1.6131 C.2       0 UNK         0.4864 
      3 O          30.3942   20.7557    1.3427 O.2       0 UNK        -0.5359 
      4 N          28.4473   21.5433    2.1682 N.am      1 UNK        -0.4318 
      5 CA         28.8886   22.8964    2.4946 C.3       1 UNK         0.0824 
      6 C6         29.7066   22.9441    3.8143 C.3       12 UNK        -0.0944 
      7 S7         30.7994   24.3999    3.9050 S.3       12 UNK        -0.2672 
      8 C8         32.2447   23.8234    2.9614 C.3       12 UNK         0.0333 
      9 C9         32.6752   24.8850    1.9640 C.ar      12 UNK        -0.0807 
     10 C10        33.6223   25.8472    2.3241 C.ar      12 UNK        -0.0894 
     11 C11        33.9894   26.8496    1.4219 C.ar      12 UNK        -0.0804 
     12 C12        33.4028   26.8846    0.1524 C.ar      12 UNK        -0.0824 
     13 C13        32.4633   25.9188   -0.2258 C.ar      12 UNK        -0.0762 
     14 C14        32.1126   24.9152    0.6842 C.ar      12 UNK        -0.0782 
     15 C15        31.8535   25.9539   -1.6263 C.3       12 UNK         0.0230 
     16 S16        30.0355   25.7803   -1.6379 S.3       12 UNK        -0.2608 
     17 C17        29.5098   27.2675   -0.7229 C.3       12 UNK        -0.0989 
     18 CA         28.6158   28.2249   -1.5507 C.3       5 UNK         0.0716 
     19 N          27.4145   27.5548   -2.0606 N.am      5 UNK        -0.4135 
     20 C          26.7253   27.9401   -3.1444 C.2       4 UNK         0.5031 
     21 O          27.0722   28.8651   -3.8798 O.2       4 UNK        -0.5229 
     22 CA         25.4090   27.1975   -3.4515 C.3       4 UNK         0.0329 
     23 CB         25.6469   26.0986   -4.4995 C.3       4 UNK        -0.2001 
     24 N          24.7637   26.6075   -2.2737 N.am      4 UNK        -0.4303 
     25 C          24.3297   27.2872   -1.2026 C.2       3 UNK         0.5044 
     26 O          24.3848   28.5133   -1.1044 O.2       3 UNK        -0.5152 
     27 CA         23.8134   26.4675   -0.0048 C.3       3 UNK         0.0319 
     28 CB         23.4110   25.0178   -0.3606 C.3       3 UNK        -0.2001 
     29 N          24.7795   26.4751    1.1022 N.am      3 UNK        -0.4354 
     30 C          26.0638   26.0881    1.0518 C.2       2 UNK         0.4964 
     31 O          26.6133   25.6797    0.0256 O.2       2 UNK        -0.5047 
     32 CA         26.8977   26.2043    2.3434 C.3       2 UNK         0.0288 
     33 CB         26.0619   26.3156    3.6385 C.3       2 UNK        -0.2113 
     34 N          27.8888   25.1260    2.4463 N.am      2 UNK        -0.4145 
     35 C          27.6492   23.8090    2.5188 C.2       1 UNK         0.5006 
     36 O          26.5231   23.3064    2.5990 O.2       1 UNK        -0.5103 
     37 C          28.2818   29.4953   -0.7300 C.2       5 UNK         0.5055 
     38 O          29.2121   30.2085   -0.3518 O.2       5 UNK        -0.5220 
     39 N          26.9914   29.7607   -0.4593 N.am      6 UNK        -0.4450 
     40 CA         26.4595   30.8625    0.3506 C.3       6 UNK         0.0367 
     41 CB         26.7390   32.2296   -0.3163 C.3       6 UNK        -0.1929 
     42 C          26.9142   30.7571    1.8197 C.2       6 UNK         0.5070 
     43 O          26.8318   29.6691    2.3945 O.2       6 UNK        -0.5237 
     44 N          27.3697   31.8690    2.4136 N.am      7 UNK        -0.4739 
     45 CA         27.8912   31.9575    3.7820 C.3       7 UNK         0.0276 
     46 CB         27.8481   33.4284    4.2368 C.3       7 UNK        -0.1927 
     47 C          29.3035   31.3473    3.8839 C.2       7 UNK         0.5013 
     48 O          30.2860   32.0727    4.0533 O.2       7 UNK        -0.5193 
     49 N          29.3673   30.0227    3.7221 N.am      8 UNK        -0.4253 
     50 CA         30.5849   29.2175    3.6852 C.3       8 UNK         0.0242 
     51 CB         30.3425   28.0402    2.7259 C.3       8 UNK        -0.2000 
     52 C          31.0178   28.7589    5.0903 C.2       8 UNK         0.4948 
     53 O          30.6872   29.4059    6.0871 O.2       8 UNK        -0.5275 
     54 N          31.7819   27.6577    5.1412 N.am      9 UNK        -0.4246 
     55 CA         32.3567   26.9762    6.3108 C.3       9 UNK         0.0261 
     56 CB         31.2691   26.5070    7.2966 C.3       9 UNK        -0.1959 
     57 C          33.4585   27.7779    7.0231 C.2       9 UNK         0.5033 
     58 O          34.5373   27.2336    7.2607 O.2       9 UNK        -0.5390 
     59 N          33.2034   29.0636    7.3000 N.am      10 UNK        -0.4215 
     60 CA         34.1592   30.0238    7.8671 C.3       10 UNK         0.0240 
     61 CB         33.4330   31.3471    8.1567 C.3       10 UNK        -0.1982 
     62 C          35.3895   30.2666    6.9710 C.2       10 UNK         0.4970 
     63 O          36.4599   30.5938    7.4840 O.2       10 UNK        -0.4916 
     64 N          35.2146   30.0733    5.6589 N.am      11 UNK        -0.4279 
     65 CA         36.2718   30.0267    4.6417 C.3       11 UNK         0.1003 
     66 C          37.1894   28.7683    4.7026 C.2       11 UNK         0.5709 
     67 N          36.8867   27.7439    5.4929 N.am      11 UNK        -0.7358 
     68 O          38.2098   28.7262    4.0195 O.2       11 UNK        -0.4999 
     69 C69        35.6884   30.2560    3.2194 C.3       12 UNK        -0.0954 
     70 S70        34.2501   29.1987    2.8266 S.3       12 UNK        -0.2268 
     71 C71        35.0183   27.8936    1.8251 C.3       12 UNK         0.0203 
     72 H72        27.4871   19.2513    1.6044 H         1 UNK         0.0888 
     73 H73        28.5934   19.0420    0.2451 H         1 UNK         0.0888 
     74 H74        29.0431   18.4555    1.8491 H         1 UNK         0.0888 
     75 H75        27.4579   21.3949    2.3309 H         1 UNK         0.3017 
     76 H76        29.5143   23.2360    1.6664 H         1 UNK         0.0873 
     77 H77        29.0488   22.9375    4.6857 H         1 UNK         0.0745 
     78 H78        30.3305   22.0547    3.9162 H         1 UNK         0.0745 
     79 H79        32.0176   22.8954    2.4342 H         1 UNK         0.0705 
     80 H80        33.0567   23.5924    3.6526 H         1 UNK         0.0705 
     81 H81        34.0661   25.8249    3.3104 H         1 UNK         0.1334 
     82 H82        33.6845   27.6632   -0.5436 H         1 UNK         0.1417 
     83 H83        31.3902   24.1633    0.3979 H         1 UNK         0.1562 
     84 H84        32.2851   25.1422   -2.2132 H         1 UNK         0.0748 
     85 H85        32.1165   26.8791   -2.1415 H         1 UNK         0.0748 
     86 H86        30.4006   27.7959   -0.3785 H         1 UNK         0.0940 
     87 H87        28.9889   26.9338    0.1742 H         1 UNK         0.0940 
     88 H88        29.2054   28.5599   -2.4068 H         1 UNK         0.0703 
     89 H89        27.0736   26.7744   -1.5045 H         1 UNK         0.3081 
     90 H90        24.7157   27.9287   -3.8724 H         1 UNK         0.0719 
     91 H91        26.3163   25.3226   -4.1256 H         1 UNK         0.0809 
     92 H92        24.7120   25.6232   -4.7972 H         1 UNK         0.0809 
     93 H93        26.0995   26.5116   -5.4023 H         1 UNK         0.0809 
     94 H94        24.7155   25.5993   -2.2417 H         1 UNK         0.2990 
     95 H95        22.9194   26.9800    0.3535 H         1 UNK         0.0690 
     96 H96        22.9443   24.5259    0.4930 H         1 UNK         0.0788 
     97 H97        24.2643   24.4073   -0.6583 H         1 UNK         0.0788 
     98 H98        22.6849   24.9978   -1.1746 H         1 UNK         0.0788 
     99 H99        24.4334   26.8353    1.9804 H         1 UNK         0.2993 
    100 H100       27.4658   27.1283    2.2403 H         1 UNK         0.0949 
    101 H101       26.7063   26.3395    4.5175 H         1 UNK         0.0767 
    102 H102       25.4767   27.2359    3.6543 H         1 UNK         0.0767 
    103 H103       25.3735   25.4778    3.7558 H         1 UNK         0.0767 
    104 H104       28.8555   25.4132    2.3903 H         1 UNK         0.3013 
    105 H105       26.2825   29.1201   -0.8010 H         1 UNK         0.3121 
    106 H106       25.3774   30.7243    0.3669 H         1 UNK         0.0774 
    107 H107       26.2096   33.0352    0.1939 H         1 UNK         0.0815 
    108 H108       27.8008   32.4785   -0.3215 H         1 UNK         0.0815 
    109 H109       26.3963   32.2345   -1.3511 H         1 UNK         0.0815 
    110 H110       27.4336   32.7093    1.8575 H         1 UNK         0.2987 
    111 H111       27.2383   31.3851    4.4452 H         1 UNK         0.0949 
    112 H112       28.4610   34.0683    3.6007 H         1 UNK         0.0806 
    113 H113       26.8301   33.8182    4.2239 H         1 UNK         0.0806 
    114 H114       28.2198   33.5312    5.2572 H         1 UNK         0.0806 
    115 H115       28.4936   29.5420    3.5363 H         1 UNK         0.3010 
    116 H116       31.3905   29.8297    3.2760 H         1 UNK         0.0829 
    117 H117       29.8640   28.3898    1.8138 H         1 UNK         0.0813 
    118 H118       31.2756   27.5614    2.4305 H         1 UNK         0.0813 
    119 H119       29.7010   27.2823    3.1747 H         1 UNK         0.0813 
    120 H120       32.0021   27.2201    4.2570 H         1 UNK         0.3038 
    121 H121       32.8352   26.0794    5.9132 H         1 UNK         0.0769 
    122 H122       30.7438   27.3423    7.7603 H         1 UNK         0.0811 
    123 H123       31.7057   25.9136    8.1009 H         1 UNK         0.0811 
    124 H124       30.5290   25.8812    6.7978 H         1 UNK         0.0811 
    125 H125       32.2802   29.4115    7.0443 H         1 UNK         0.3204 
    126 H126       34.5201   29.6128    8.8121 H         1 UNK         0.0748 
    127 H127       34.1123   32.0785    8.5971 H         1 UNK         0.0771 
    128 H128       33.0210   31.7883    7.2479 H         1 UNK         0.0771 
    129 H129       32.6130   31.2033    8.8606 H         1 UNK         0.0771 
    130 H130       34.2983   29.8071    5.3322 H         1 UNK         0.2980 
    131 H131       36.9375   30.8672    4.8460 H         1 UNK         0.0545 
    132 H132       36.0576   27.7461    6.0766 H         1 UNK         0.3459 
    133 H133       37.5046   26.9489    5.5143 H         1 UNK         0.3459 
    134 H134       36.4550   30.1454    2.4501 H         1 UNK         0.0616 
    135 H135       35.3506   31.2902    3.1401 H         1 UNK         0.0616 
    136 H136       35.8203   27.4194    2.3923 H         1 UNK         0.0634 
    137 H137       35.4804   28.3383    0.9425 H         1 UNK         0.0634 
@<TRIPOS>BOND
     1    1    2 1    
     2    1   72 1    
     3    1   73 1    
     4    1   74 1    
     5    2    3 2    
     6    2    4 am   BACKBONE|DICT|INTERRES
     7    4    5 1    
     8    4   75 1    
     9    5    6 1    
    10    5   35 1    
    11    5   76 1    
    12    6    7 1    
    13    6   77 1    
    14    6   78 1    
    15    7    8 1    
    16    8    9 1    
    17    8   79 1    
    18    8   80 1    
    19    9   10 ar   
    20    9   14 ar   
    21   10   11 ar   
    22   10   81 1    
    23   11   12 ar   
    24   11   71 1    
    25   12   13 ar   
    26   12   82 1    
    27   13   14 ar   
    28   13   15 1    
    29   14   83 1    
    30   15   16 1    
    31   15   84 1    
    32   15   85 1    
    33   16   17 1    
    34   17   18 1    
    35   17   86 1    
    36   17   87 1    
    37   18   19 1    
    38   18   37 1    
    39   18   88 1    
    40   19   20 am   BACKBONE|DICT|INTERRES
    41   19   89 1    
    42   20   21 2    
    43   20   22 1    
    44   22   23 1    
    45   22   24 1    
    46   22   90 1    
    47   23   91 1    
    48   23   92 1    
    49   23   93 1    
    50   24   25 am   BACKBONE|DICT|INTERRES
    51   24   94 1    
    52   25   26 2    
    53   25   27 1    
    54   27   28 1    
    55   27   29 1    
    56   27   95 1    
    57   28   96 1    
    58   28   97 1    
    59   28   98 1    
    60   29   30 am   BACKBONE|DICT|INTERRES
    61   29   99 1    
    62   30   31 2    
    63   30   32 1    
    64   32   33 1    
    65   32   34 1    
    66   32  100 1    
    67   33  101 1    
    68   33  102 1    
    69   33  103 1    
    70   34   35 am   BACKBONE|DICT|INTERRES
    71   34  104 1    
    72   35   36 2    
    73   37   38 2    
    74   37   39 am   BACKBONE|DICT|INTERRES
    75   39   40 1    
    76   39  105 1    
    77   40   41 1    
    78   40   42 1    
    79   40  106 1    
    80   41  107 1    
    81   41  108 1    
    82   41  109 1    
    83   42   43 2    
    84   42   44 am   BACKBONE|DICT|INTERRES
    85   44   45 1    
    86   44  110 1    
    87   45   46 1    
    88   45   47 1    
    89   45  111 1    
    90   46  112 1    
    91   46  113 1    
    92   46  114 1    
    93   47   48 2    
    94   47   49 am   BACKBONE|DICT|INTERRES
    95   49   50 1    
    96   49  115 1    
    97   50   51 1    
    98   50   52 1    
    99   50  116 1    
   100   51  117 1    
   101   51  118 1    
   102   51  119 1    
   103   52   53 2    
   104   52   54 am   BACKBONE|DICT|INTERRES
   105   54   55 1    
   106   54  120 1    
   107   55   56 1    
   108   55   57 1    
   109   55  121 1    
   110   56  122 1    
   111   56  123 1    
   112   56  124 1    
   113   57   58 2    
   114   57   59 am   BACKBONE|DICT|INTERRES
   115   59   60 1    
   116   59  125 1    
   117   60   61 1    
   118   60   62 1    
   119   60  126 1    
   120   61  127 1    
   121   61  128 1    
   122   61  129 1    
   123   62   63 2    
   124   62   64 am   BACKBONE|DICT|INTERRES
   125   64   65 1    
   126   64  130 1    
   127   65   66 1    
   128   65   69 1    
   129   65  131 1    
   130   66   67 am   BACKBONE|DICT|INTERRES
   131   66   68 2    
   132   67  132 1    
   133   67  133 1    
   134   69   70 1    
   135   69  134 1    
   136   69  135 1    
   137   70   71 1    
   138   71  136 1    
   139   71  137 1    
@<TRIPOS>SUBSTRUCTURE
     1 UNK         1 GROUP             0       ****    0 ROOT    
