@<TRIPOS>MOLECULE
3R136
137   139    1
SMALL
USER_CHARGES


@<TRIPOS>ATOM
      1 CA         30.0709   19.4390   -2.1422 C.3       0 UNK        -0.1979 
      2 C          29.8414   20.8618   -2.6308 C.2       0 UNK         0.4864 
      3 O          29.7898   21.0927   -3.8400 O.2       0 UNK        -0.5359 
      4 N          29.7091   21.8158   -1.7010 N.am      1 UNK        -0.4318 
      5 CA         29.4238   23.2248   -1.9860 C.3       1 UNK         0.0824 
      6 C6         29.7810   24.1415   -0.7873 C.3       12 UNK        -0.0944 
      7 S7         31.5839   24.2596   -0.5479 S.3       12 UNK        -0.2672 
      8 C8         31.8793   23.0932    0.8207 C.3       12 UNK         0.0333 
      9 C9         31.7514   23.7399    2.1946 C.ar      12 UNK        -0.0807 
     10 C10        32.6155   24.7766    2.5601 C.ar      12 UNK        -0.0894 
     11 C11        32.5738   25.3198    3.8472 C.ar      12 UNK        -0.0804 
     12 C12        31.6590   24.8168    4.7768 C.ar      12 UNK        -0.0824 
     13 C13        30.7815   23.7880    4.4224 C.ar      12 UNK        -0.0762 
     14 C14        30.8275   23.2572    3.1280 C.ar      12 UNK        -0.0782 
     15 C15        29.8169   23.2160    5.4512 C.3       12 UNK         0.0230 
     16 S16        28.1357   23.8844    5.2629 S.3       12 UNK        -0.2608 
     17 C17        28.2961   25.5708    5.9495 C.3       12 UNK        -0.0989 
     18 CA         28.2943   26.6680    4.8562 C.3       5 UNK         0.0716 
     19 N          27.1404   26.5562    3.9611 N.am      5 UNK        -0.4135 
     20 C          26.9428   27.3085    2.8737 C.2       4 UNK         0.5031 
     21 O          27.7579   28.1389    2.4594 O.2       4 UNK        -0.5229 
     22 CA         25.5772   27.1414    2.1843 C.3       4 UNK         0.0329 
     23 CB         24.5032   27.9554    2.9259 C.3       4 UNK        -0.2001 
     24 N          25.5925   27.5501    0.7787 N.am      4 UNK        -0.4303 
     25 C          26.2773   26.9234   -0.1844 C.2       3 UNK         0.5044 
     26 O          26.9709   25.9216    0.0058 O.2       3 UNK        -0.5152 
     27 CA         26.1707   27.5311   -1.5933 C.3       3 UNK         0.0319 
     28 CB         27.1003   28.7469   -1.7406 C.3       3 UNK        -0.2001 
     29 N          26.5259   26.5400   -2.6076 N.am      3 UNK        -0.4354 
     30 C          25.7073   25.5809   -3.0604 C.2       2 UNK         0.4964 
     31 O          24.5043   25.5208   -2.8028 O.2       2 UNK        -0.5047 
     32 CA         26.3523   24.4935   -3.9362 C.3       2 UNK         0.0288 
     33 CB         26.4160   24.9430   -5.4054 C.3       2 UNK        -0.2113 
     34 N          27.6978   24.1408   -3.4705 N.am      2 UNK        -0.4145 
     35 C          27.9450   23.3886   -2.3877 C.2       1 UNK         0.5006 
     36 O          27.0671   22.8421   -1.7139 O.2       1 UNK        -0.5103 
     37 C          28.3184   28.0769    5.4856 C.2       5 UNK         0.5055 
     38 O          27.2943   28.5160    6.0134 O.2       5 UNK        -0.5220 
     39 N          29.4641   28.7607    5.3733 N.am      6 UNK        -0.4450 
     40 CA         29.7107   30.1641    5.7382 C.3       6 UNK         0.0367 
     41 CB         29.3696   30.4574    7.2150 C.3       6 UNK        -0.1929 
     42 C          29.1006   31.1978    4.7672 C.2       6 UNK         0.5070 
     43 O          29.2185   32.3959    5.0286 O.2       6 UNK        -0.5237 
     44 N          28.5072   30.7446    3.6534 N.am      7 UNK        -0.4739 
     45 CA         28.1354   31.5790    2.5061 C.3       7 UNK         0.0276 
     46 CB         26.6618   31.3419    2.1367 C.3       7 UNK        -0.1927 
     47 C          29.0512   31.2766    1.3092 C.2       7 UNK         0.5013 
     48 O          29.4132   32.2009    0.5811 O.2       7 UNK        -0.5193 
     49 N          29.4266   29.9986    1.1397 N.am      8 UNK        -0.4253 
     50 CA         30.3449   29.4984    0.1114 C.3       8 UNK         0.0242 
     51 CB         30.3932   27.9621    0.1973 C.3       8 UNK        -0.2000 
     52 C          31.7712   30.0704    0.2049 C.2       8 UNK         0.4948 
     53 O          32.4331   30.2125   -0.8243 O.2       8 UNK        -0.5275 
     54 N          32.2147   30.3809    1.4263 N.am      9 UNK        -0.4246 
     55 CA         33.5177   30.9358    1.7752 C.3       9 UNK         0.0261 
     56 CB         34.6101   29.8530    1.6421 C.3       9 UNK        -0.1959 
     57 C          33.4242   31.4653    3.2123 C.2       9 UNK         0.5033 
     58 O          32.3809   31.3115    3.8550 O.2       9 UNK        -0.5390 
     59 N          34.5203   32.0414    3.7208 N.am      10 UNK        -0.4215 
     60 CA         34.6740   32.4565    5.1194 C.3       10 UNK         0.0240 
     61 CB         35.7943   33.5101    5.2096 C.3       10 UNK        -0.1982 
     62 C          34.9269   31.2386    6.0330 C.2       10 UNK         0.4970 
     63 O          36.0175   31.0960    6.5888 O.2       10 UNK        -0.4916 
     64 N          33.9223   30.3604    6.1275 N.am      11 UNK        -0.4279 
     65 CA         33.9731   29.0672    6.8309 C.3       11 UNK         0.1003 
     66 C          34.0435   29.1599    8.3831 C.2       11 UNK         0.5709 
     67 N          33.7755   30.3073    8.9951 N.am      11 UNK        -0.7358 
     68 O          34.3511   28.1700    9.0428 O.2       11 UNK        -0.4999 
     69 C69        32.8213   28.1215    6.3914 C.3       12 UNK        -0.0954 
     70 S70        32.6567   27.9810    4.5763 S.3       12 UNK        -0.2268 
     71 C71        33.5379   26.4292    4.2363 C.3       12 UNK         0.0203 
     72 H72        31.0115   19.0545   -2.5358 H         1 UNK         0.0888 
     73 H73        30.1108   19.3824   -1.0545 H         1 UNK         0.0888 
     74 H74        29.2662   18.7900   -2.4863 H         1 UNK         0.0888 
     75 H75        29.7126   21.5604   -0.7253 H         1 UNK         0.3017 
     76 H76        30.0397   23.5262   -2.8367 H         1 UNK         0.0873 
     77 H77        29.4217   25.1571   -0.9637 H         1 UNK         0.0745 
     78 H78        29.2955   23.8081    0.1321 H         1 UNK         0.0745 
     79 H79        32.8922   22.7007    0.7209 H         1 UNK         0.0705 
     80 H80        31.2152   22.2337    0.7265 H         1 UNK         0.0705 
     81 H81        33.3339   25.1471    1.8414 H         1 UNK         0.1334 
     82 H82        31.6364   25.2245    5.7778 H         1 UNK         0.1417 
     83 H83        30.1604   22.4491    2.8600 H         1 UNK         0.1562 
     84 H84        30.1751   23.3973    6.4658 H         1 UNK         0.0748 
     85 H85        29.7737   22.1316    5.3394 H         1 UNK         0.0748 
     86 H86        29.2029   25.6363    6.5534 H         1 UNK         0.0940 
     87 H87        27.4658   25.7221    6.6427 H         1 UNK         0.0940 
     88 H88        29.1897   26.5392    4.2432 H         1 UNK         0.0703 
     89 H89        26.4230   25.9081    4.2497 H         1 UNK         0.3081 
     90 H90        25.3033   26.0847    2.2208 H         1 UNK         0.0719 
     91 H91        24.7245   29.0231    2.9157 H         1 UNK         0.0809 
     92 H92        23.5179   27.8121    2.4818 H         1 UNK         0.0809 
     93 H93        24.4305   27.6521    3.9713 H         1 UNK         0.0809 
     94 H94        25.0709   28.3814    0.5439 H         1 UNK         0.2990 
     95 H95        25.1404   27.8569   -1.7526 H         1 UNK         0.0690 
     96 H96        26.9348   29.2552   -2.6907 H         1 UNK         0.0788 
     97 H97        28.1487   28.4550   -1.7004 H         1 UNK         0.0788 
     98 H98        26.9328   29.4786   -0.9488 H         1 UNK         0.0788 
     99 H99        27.5035   26.4799   -2.8467 H         1 UNK         0.2993 
    100 H100       25.7204   23.6040   -3.8794 H         1 UNK         0.0949 
    101 H101       27.0434   25.8260   -5.5345 H         1 UNK         0.0767 
    102 H102       26.8117   24.1531   -6.0444 H         1 UNK         0.0767 
    103 H103       25.4218   25.1923   -5.7791 H         1 UNK         0.0767 
    104 H104       28.4746   24.5232   -3.9906 H         1 UNK         0.3013 
    105 H105       30.2445   28.3067    4.9142 H         1 UNK         0.3121 
    106 H106       30.7874   30.2956    5.6408 H         1 UNK         0.0774 
    107 H107       29.7524   31.4338    7.5141 H         1 UNK         0.0815 
    108 H108       28.2941   30.4693    7.3917 H         1 UNK         0.0815 
    109 H109       29.8145   29.7192    7.8820 H         1 UNK         0.0815 
    110 H110       28.4027   29.7442    3.5268 H         1 UNK         0.2987 
    111 H111       28.2545   32.6371    2.7496 H         1 UNK         0.0949 
    112 H112       26.3499   32.0187    1.3403 H         1 UNK         0.0806 
    113 H113       26.4870   30.3268    1.7824 H         1 UNK         0.0806 
    114 H114       26.0058   31.5187    2.9891 H         1 UNK         0.0806 
    115 H115       28.9804   29.2909    1.7193 H         1 UNK         0.3010 
    116 H116       29.9406   29.7863   -0.8604 H         1 UNK         0.0829 
    117 H117       29.4001   27.5209    0.1148 H         1 UNK         0.0813 
    118 H118       31.0024   27.5434   -0.6048 H         1 UNK         0.0813 
    119 H119       30.8230   27.6237    1.1415 H         1 UNK         0.0813 
    120 H120       31.5935   30.2909    2.2219 H         1 UNK         0.3038 
    121 H121       33.7370   31.7744    1.1116 H         1 UNK         0.0769 
    122 H122       35.5985   30.2488    1.8760 H         1 UNK         0.0811 
    123 H123       34.6617   29.4584    0.6274 H         1 UNK         0.0811 
    124 H124       34.4266   29.0140    2.3137 H         1 UNK         0.0811 
    125 H125       35.3442   32.1106    3.1406 H         1 UNK         0.3204 
    126 H126       33.7473   32.9291    5.4530 H         1 UNK         0.0748 
    127 H127       35.9238   33.8549    6.2365 H         1 UNK         0.0771 
    128 H128       36.7537   33.1134    4.8750 H         1 UNK         0.0771 
    129 H129       35.5638   34.3861    4.6029 H         1 UNK         0.0771 
    130 H130       33.0952   30.5362    5.5673 H         1 UNK         0.2980 
    131 H131       34.9067   28.5910    6.5255 H         1 UNK         0.0545 
    132 H132       33.5270   31.1244    8.4618 H         1 UNK         0.3459 
    133 H133       33.8283   30.3551   10.0003 H         1 UNK         0.3459 
    134 H134       31.8729   28.4808    6.7904 H         1 UNK         0.0616 
    135 H135       32.9578   27.1268    6.8188 H         1 UNK         0.0616 
    136 H136       34.1294   26.1190    5.0984 H         1 UNK         0.0634 
    137 H137       34.2524   26.6153    3.4331 H         1 UNK         0.0634 
@<TRIPOS>BOND
     1    1    2 1    
     2    1   72 1    
     3    1   73 1    
     4    1   74 1    
     5    2    3 2    
     6    2    4 am   BACKBONE|DICT|INTERRES
     7    4    5 1    
     8    4   75 1    
     9    5    6 1    
    10    5   35 1    
    11    5   76 1    
    12    6    7 1    
    13    6   77 1    
    14    6   78 1    
    15    7    8 1    
    16    8    9 1    
    17    8   79 1    
    18    8   80 1    
    19    9   10 ar   
    20    9   14 ar   
    21   10   11 ar   
    22   10   81 1    
    23   11   12 ar   
    24   11   71 1    
    25   12   13 ar   
    26   12   82 1    
    27   13   14 ar   
    28   13   15 1    
    29   14   83 1    
    30   15   16 1    
    31   15   84 1    
    32   15   85 1    
    33   16   17 1    
    34   17   18 1    
    35   17   86 1    
    36   17   87 1    
    37   18   19 1    
    38   18   37 1    
    39   18   88 1    
    40   19   20 am   BACKBONE|DICT|INTERRES
    41   19   89 1    
    42   20   21 2    
    43   20   22 1    
    44   22   23 1    
    45   22   24 1    
    46   22   90 1    
    47   23   91 1    
    48   23   92 1    
    49   23   93 1    
    50   24   25 am   BACKBONE|DICT|INTERRES
    51   24   94 1    
    52   25   26 2    
    53   25   27 1    
    54   27   28 1    
    55   27   29 1    
    56   27   95 1    
    57   28   96 1    
    58   28   97 1    
    59   28   98 1    
    60   29   30 am   BACKBONE|DICT|INTERRES
    61   29   99 1    
    62   30   31 2    
    63   30   32 1    
    64   32   33 1    
    65   32   34 1    
    66   32  100 1    
    67   33  101 1    
    68   33  102 1    
    69   33  103 1    
    70   34   35 am   BACKBONE|DICT|INTERRES
    71   34  104 1    
    72   35   36 2    
    73   37   38 2    
    74   37   39 am   BACKBONE|DICT|INTERRES
    75   39   40 1    
    76   39  105 1    
    77   40   41 1    
    78   40   42 1    
    79   40  106 1    
    80   41  107 1    
    81   41  108 1    
    82   41  109 1    
    83   42   43 2    
    84   42   44 am   BACKBONE|DICT|INTERRES
    85   44   45 1    
    86   44  110 1    
    87   45   46 1    
    88   45   47 1    
    89   45  111 1    
    90   46  112 1    
    91   46  113 1    
    92   46  114 1    
    93   47   48 2    
    94   47   49 am   BACKBONE|DICT|INTERRES
    95   49   50 1    
    96   49  115 1    
    97   50   51 1    
    98   50   52 1    
    99   50  116 1    
   100   51  117 1    
   101   51  118 1    
   102   51  119 1    
   103   52   53 2    
   104   52   54 am   BACKBONE|DICT|INTERRES
   105   54   55 1    
   106   54  120 1    
   107   55   56 1    
   108   55   57 1    
   109   55  121 1    
   110   56  122 1    
   111   56  123 1    
   112   56  124 1    
   113   57   58 2    
   114   57   59 am   BACKBONE|DICT|INTERRES
   115   59   60 1    
   116   59  125 1    
   117   60   61 1    
   118   60   62 1    
   119   60  126 1    
   120   61  127 1    
   121   61  128 1    
   122   61  129 1    
   123   62   63 2    
   124   62   64 am   BACKBONE|DICT|INTERRES
   125   64   65 1    
   126   64  130 1    
   127   65   66 1    
   128   65   69 1    
   129   65  131 1    
   130   66   67 am   BACKBONE|DICT|INTERRES
   131   66   68 2    
   132   67  132 1    
   133   67  133 1    
   134   69   70 1    
   135   69  134 1    
   136   69  135 1    
   137   70   71 1    
   138   71  136 1    
   139   71  137 1    
@<TRIPOS>SUBSTRUCTURE
     1 UNK         1 GROUP             0       ****    0 ROOT    
