@<TRIPOS>MOLECULE
3R136
137   139    1
SMALL
USER_CHARGES


@<TRIPOS>ATOM
      1 CA         31.8663   17.3640    2.7135 C.3       0 UNK        -0.1979 
      2 C          30.9432   18.0569    1.7218 C.2       0 UNK         0.4864 
      3 O          30.1270   17.3935    1.0800 O.2       0 UNK        -0.5359 
      4 N          31.0704   19.3837    1.5863 N.am      1 UNK        -0.4318 
      5 CA         30.2262   20.2238    0.7321 C.3       1 UNK         0.0824 
      6 C6         30.8907   21.6020    0.4839 C.3       12 UNK        -0.0944 
      7 S7         30.3900   22.3424   -1.1041 S.3       12 UNK        -0.2672 
      8 C8         29.2619   23.6543   -0.5528 C.3       12 UNK         0.0333 
      9 C9         29.9980   24.8831   -0.0395 C.ar      12 UNK        -0.0807 
     10 C10        30.1771   25.0864    1.3323 C.ar      12 UNK        -0.0894 
     11 C11        30.8166   26.2383    1.8023 C.ar      12 UNK        -0.0804 
     12 C12        31.2916   27.1838    0.8902 C.ar      12 UNK        -0.0824 
     13 C13        31.0967   27.0013   -0.4810 C.ar      12 UNK        -0.0762 
     14 C14        30.4593   25.8454   -0.9409 C.ar      12 UNK        -0.0782 
     15 C15        31.5458   28.0617   -1.4709 C.3       12 UNK         0.0230 
     16 S16        30.1352   29.0624   -2.0389 S.3       12 UNK        -0.2608 
     17 C17        29.7970   30.1204   -0.5926 C.3       12 UNK        -0.0989 
     18 CA         28.3635   29.9320   -0.0356 C.3       5 UNK         0.0716 
     19 N          28.1732   28.6431    0.6440 N.am      5 UNK        -0.4135 
     20 C          26.9719   28.0927    0.8664 C.2       4 UNK         0.5031 
     21 O          25.9147   28.5294    0.4053 O.2       4 UNK        -0.5229 
     22 CA         26.9247   26.8719    1.7875 C.3       4 UNK         0.0329 
     23 CB         26.3383   27.2389    3.1634 C.3       4 UNK        -0.2001 
     24 N          26.1128   25.8422    1.1489 N.am      4 UNK        -0.4303 
     25 C          26.2618   24.5267    1.3354 C.2       3 UNK         0.5044 
     26 O          27.0384   24.0469    2.1638 O.2       3 UNK        -0.5152 
     27 CA         25.4182   23.5992    0.4352 C.3       3 UNK         0.0319 
     28 CB         25.2942   24.1230   -1.0105 C.3       3 UNK        -0.2001 
     29 N          25.9746   22.2430    0.3920 N.am      3 UNK        -0.4354 
     30 C          25.6841   21.2646    1.2590 C.2       2 UNK         0.4964 
     31 O          24.8730   21.3776    2.1794 O.2       2 UNK        -0.5047 
     32 CA         26.3918   19.9155    1.0460 C.3       2 UNK         0.0288 
     33 CB         25.5902   19.0406    0.0674 C.3       2 UNK        -0.2113 
     34 N          27.7751   20.0297    0.5684 N.am      2 UNK        -0.4145 
     35 C          28.8160   20.3460    1.3525 C.2       1 UNK         0.5006 
     36 O          28.7063   20.6847    2.5337 O.2       1 UNK        -0.5103 
     37 C          27.9963   31.1137    0.8863 C.2       5 UNK         0.5055 
     38 O          27.6039   32.1639    0.3769 O.2       5 UNK        -0.5220 
     39 N          28.1575   30.9400    2.2097 N.am      6 UNK        -0.4450 
     40 CA         27.8715   31.8741    3.3129 C.3       6 UNK         0.0367 
     41 CB         26.3775   32.2474    3.3572 C.3       6 UNK        -0.1929 
     42 C          28.7568   33.1363    3.3587 C.2       6 UNK         0.5070 
     43 O          29.1271   33.5682    4.4505 O.2       6 UNK        -0.5237 
     44 N          29.0918   33.7004    2.1936 N.am      7 UNK        -0.4739 
     45 CA         30.0058   34.8337    2.0357 C.3       7 UNK         0.0276 
     46 CB         29.6802   35.5559    0.7182 C.3       7 UNK        -0.1927 
     47 C          31.4865   34.4137    2.0641 C.2       7 UNK         0.5013 
     48 O          32.3408   35.2491    2.3636 O.2       7 UNK        -0.5193 
     49 N          31.7697   33.1441    1.7394 N.am      8 UNK        -0.4253 
     50 CA         33.1095   32.5569    1.7741 C.3       8 UNK         0.0242 
     51 CB         33.1313   31.2835    0.9125 C.3       8 UNK        -0.2000 
     52 C          33.4982   32.2190    3.2181 C.2       8 UNK         0.4948 
     53 O          32.6722   31.6665    3.9466 O.2       8 UNK        -0.5275 
     54 N          34.7569   32.4873    3.5900 N.am      9 UNK        -0.4246 
     55 CA         35.3070   32.3155    4.9446 C.3       9 UNK         0.0261 
     56 CB         36.7667   32.7999    4.9547 C.3       9 UNK        -0.1959 
     57 C          35.2105   30.8932    5.5358 C.2       9 UNK         0.5033 
     58 O          35.3311   30.7400    6.7521 O.2       9 UNK        -0.5390 
     59 N          34.9873   29.8878    4.6798 N.am      10 UNK        -0.4215 
     60 CA         34.7439   28.4950    5.0501 C.3       10 UNK         0.0240 
     61 CB         34.7938   27.6273    3.7813 C.3       10 UNK        -0.1982 
     62 C          33.4228   28.2637    5.8111 C.2       10 UNK         0.4970 
     63 O          33.3571   27.3029    6.5794 O.2       10 UNK        -0.4916 
     64 N          32.4047   29.1103    5.5948 N.am      11 UNK        -0.4279 
     65 CA         31.0797   28.9744    6.2294 C.3       11 UNK         0.1003 
     66 C          30.2470   30.2828    6.3349 C.2       11 UNK         0.5709 
     67 N          30.6664   31.4030    5.7667 N.am      11 UNK        -0.7358 
     68 O          29.1945   30.2871    6.9692 O.2       11 UNK        -0.4999 
     69 C69        30.2491   27.7889    5.6574 C.3       12 UNK        -0.0954 
     70 S70        29.9666   27.8791    3.8555 S.3       12 UNK        -0.2268 
     71 C71        30.9778   26.4735    3.2947 C.3       12 UNK         0.0203 
     72 H72        32.4677   16.6116    2.2039 H         1 UNK         0.0888 
     73 H73        32.5432   18.0660    3.2001 H         1 UNK         0.0888 
     74 H74        31.2807   16.8668    3.4863 H         1 UNK         0.0888 
     75 H75        31.7351   19.8769    2.1651 H         1 UNK         0.3017 
     76 H76        30.1418   19.7070   -0.2269 H         1 UNK         0.0873 
     77 H77        31.9745   21.4871    0.4268 H         1 UNK         0.0745 
     78 H78        30.7174   22.2888    1.3134 H         1 UNK         0.0745 
     79 H79        28.6215   23.9376   -1.3886 H         1 UNK         0.0705 
     80 H80        28.6071   23.2507    0.2167 H         1 UNK         0.0705 
     81 H81        29.7947   24.3592    2.0359 H         1 UNK         0.1334 
     82 H82        31.7879   28.0729    1.2543 H         1 UNK         0.1417 
     83 H83        30.3054   25.7045   -2.0024 H         1 UNK         0.1562 
     84 H84        32.0073   27.5798   -2.3341 H         1 UNK         0.0748 
     85 H85        32.3109   28.7084   -1.0382 H         1 UNK         0.0748 
     86 H86        29.9506   31.1493   -0.9261 H         1 UNK         0.0940 
     87 H87        30.5372   29.9468    0.1874 H         1 UNK         0.0940 
     88 H88        27.6716   29.9757   -0.8801 H         1 UNK         0.0703 
     89 H89        29.0013   28.1842    0.9978 H         1 UNK         0.3081 
     90 H90        27.9391   26.4994    1.9271 H         1 UNK         0.0719 
     91 H91        25.3022   27.5700    3.0840 H         1 UNK         0.0809 
     92 H92        26.3679   26.3885    3.8447 H         1 UNK         0.0809 
     93 H93        26.9037   28.0461    3.6304 H         1 UNK         0.0809 
     94 H94        25.4682   26.1831    0.4473 H         1 UNK         0.2990 
     95 H95        24.4148   23.5608    0.8645 H         1 UNK         0.0690 
     96 H96        24.7674   23.4089   -1.6441 H         1 UNK         0.0788 
     97 H97        26.2681   24.3114   -1.4623 H         1 UNK         0.0788 
     98 H98        24.7262   25.0529   -1.0531 H         1 UNK         0.0788 
     99 H99        26.6653   22.0575   -0.3189 H         1 UNK         0.2993 
    100 H100       26.4082   19.4055    2.0122 H         1 UNK         0.0949 
    101 H101       26.0238   18.0440   -0.0198 H         1 UNK         0.0767 
    102 H102       24.5616   18.9149    0.4090 H         1 UNK         0.0767 
    103 H103       25.5506   19.4792   -0.9305 H         1 UNK         0.0767 
    104 H104       27.9501   19.7512   -0.3867 H         1 UNK         0.3013 
    105 H105       28.5284   30.0495    2.5098 H         1 UNK         0.3121 
    106 H106       28.0902   31.3163    4.2250 H         1 UNK         0.0774 
    107 H107       26.1545   32.8500    4.2387 H         1 UNK         0.0815 
    108 H108       26.0746   32.8274    2.4850 H         1 UNK         0.0815 
    109 H109       25.7484   31.3585    3.4046 H         1 UNK         0.0815 
    110 H110       28.6731   33.3093    1.3524 H         1 UNK         0.2987 
    111 H111       29.8474   35.5339    2.8591 H         1 UNK         0.0949 
    112 H112       29.8126   34.9020   -0.1448 H         1 UNK         0.0806 
    113 H113       28.6523   35.9189    0.7093 H         1 UNK         0.0806 
    114 H114       30.3294   36.4210    0.5758 H         1 UNK         0.0806 
    115 H115       30.9981   32.5177    1.5733 H         1 UNK         0.3010 
    116 H116       33.8205   33.2754    1.3600 H         1 UNK         0.0829 
    117 H117       32.7875   31.4808   -0.1032 H         1 UNK         0.0813 
    118 H118       34.1427   30.8819    0.8376 H         1 UNK         0.0813 
    119 H119       32.5044   30.4995    1.3378 H         1 UNK         0.0813 
    120 H120       35.3749   32.9128    2.9133 H         1 UNK         0.3038 
    121 H121       34.7293   32.9649    5.6057 H         1 UNK         0.0769 
    122 H122       37.3914   32.2111    4.2817 H         1 UNK         0.0811 
    123 H123       37.1995   32.7204    5.9531 H         1 UNK         0.0811 
    124 H124       36.8418   33.8458    4.6565 H         1 UNK         0.0811 
    125 H125       34.9056   30.1193    3.7013 H         1 UNK         0.3204 
    126 H126       35.5553   28.1805    5.7099 H         1 UNK         0.0748 
    127 H127       35.7713   27.6832    3.3018 H         1 UNK         0.0771 
    128 H128       34.6113   26.5776    4.0163 H         1 UNK         0.0771 
    129 H129       34.0445   27.9350    3.0508 H         1 UNK         0.0771 
    130 H130       32.5244   29.8944    4.9637 H         1 UNK         0.2980 
    131 H131       31.2761   28.7345    7.2762 H         1 UNK         0.0545 
    132 H132       31.4942   31.4422    5.1757 H         1 UNK         0.3459 
    133 H133       30.0827   32.2261    5.8197 H         1 UNK         0.3459 
    134 H134       29.2768   27.7241    6.1488 H         1 UNK         0.0616 
    135 H135       30.7452   26.8481    5.8977 H         1 UNK         0.0616 
    136 H136       32.0255   26.6625    3.5254 H         1 UNK         0.0634 
    137 H137       30.6912   25.5813    3.8536 H         1 UNK         0.0634 
@<TRIPOS>BOND
     1    1    2 1    
     2    1   72 1    
     3    1   73 1    
     4    1   74 1    
     5    2    3 2    
     6    2    4 am   BACKBONE|DICT|INTERRES
     7    4    5 1    
     8    4   75 1    
     9    5    6 1    
    10    5   35 1    
    11    5   76 1    
    12    6    7 1    
    13    6   77 1    
    14    6   78 1    
    15    7    8 1    
    16    8    9 1    
    17    8   79 1    
    18    8   80 1    
    19    9   10 ar   
    20    9   14 ar   
    21   10   11 ar   
    22   10   81 1    
    23   11   12 ar   
    24   11   71 1    
    25   12   13 ar   
    26   12   82 1    
    27   13   14 ar   
    28   13   15 1    
    29   14   83 1    
    30   15   16 1    
    31   15   84 1    
    32   15   85 1    
    33   16   17 1    
    34   17   18 1    
    35   17   86 1    
    36   17   87 1    
    37   18   19 1    
    38   18   37 1    
    39   18   88 1    
    40   19   20 am   BACKBONE|DICT|INTERRES
    41   19   89 1    
    42   20   21 2    
    43   20   22 1    
    44   22   23 1    
    45   22   24 1    
    46   22   90 1    
    47   23   91 1    
    48   23   92 1    
    49   23   93 1    
    50   24   25 am   BACKBONE|DICT|INTERRES
    51   24   94 1    
    52   25   26 2    
    53   25   27 1    
    54   27   28 1    
    55   27   29 1    
    56   27   95 1    
    57   28   96 1    
    58   28   97 1    
    59   28   98 1    
    60   29   30 am   BACKBONE|DICT|INTERRES
    61   29   99 1    
    62   30   31 2    
    63   30   32 1    
    64   32   33 1    
    65   32   34 1    
    66   32  100 1    
    67   33  101 1    
    68   33  102 1    
    69   33  103 1    
    70   34   35 am   BACKBONE|DICT|INTERRES
    71   34  104 1    
    72   35   36 2    
    73   37   38 2    
    74   37   39 am   BACKBONE|DICT|INTERRES
    75   39   40 1    
    76   39  105 1    
    77   40   41 1    
    78   40   42 1    
    79   40  106 1    
    80   41  107 1    
    81   41  108 1    
    82   41  109 1    
    83   42   43 2    
    84   42   44 am   BACKBONE|DICT|INTERRES
    85   44   45 1    
    86   44  110 1    
    87   45   46 1    
    88   45   47 1    
    89   45  111 1    
    90   46  112 1    
    91   46  113 1    
    92   46  114 1    
    93   47   48 2    
    94   47   49 am   BACKBONE|DICT|INTERRES
    95   49   50 1    
    96   49  115 1    
    97   50   51 1    
    98   50   52 1    
    99   50  116 1    
   100   51  117 1    
   101   51  118 1    
   102   51  119 1    
   103   52   53 2    
   104   52   54 am   BACKBONE|DICT|INTERRES
   105   54   55 1    
   106   54  120 1    
   107   55   56 1    
   108   55   57 1    
   109   55  121 1    
   110   56  122 1    
   111   56  123 1    
   112   56  124 1    
   113   57   58 2    
   114   57   59 am   BACKBONE|DICT|INTERRES
   115   59   60 1    
   116   59  125 1    
   117   60   61 1    
   118   60   62 1    
   119   60  126 1    
   120   61  127 1    
   121   61  128 1    
   122   61  129 1    
   123   62   63 2    
   124   62   64 am   BACKBONE|DICT|INTERRES
   125   64   65 1    
   126   64  130 1    
   127   65   66 1    
   128   65   69 1    
   129   65  131 1    
   130   66   67 am   BACKBONE|DICT|INTERRES
   131   66   68 2    
   132   67  132 1    
   133   67  133 1    
   134   69   70 1    
   135   69  134 1    
   136   69  135 1    
   137   70   71 1    
   138   71  136 1    
   139   71  137 1    
@<TRIPOS>SUBSTRUCTURE
     1 UNK         1 GROUP             0       ****    0 ROOT    
