@<TRIPOS>MOLECULE
3R136
137   139    1
SMALL
USER_CHARGES


@<TRIPOS>ATOM
      1 CA         26.6082   20.5630   -0.0437 C.3       0 UNK        -0.1979 
      2 C          27.9276   21.2979    0.1438 C.2       0 UNK         0.4864 
      3 O          28.7452   21.3221   -0.7764 O.2       0 UNK        -0.5359 
      4 N          28.1248   21.8980    1.3224 N.am      1 UNK        -0.4318 
      5 CA         29.2720   22.7315    1.6838 C.3       1 UNK         0.0824 
      6 C6         30.3201   21.9599    2.5351 C.3       12 UNK        -0.0944 
      7 S7         31.4344   20.9672    1.4848 S.3       12 UNK        -0.2672 
      8 C8         32.9977   21.9150    1.5438 C.3       12 UNK         0.0333 
      9 C9         32.8220   23.3983    1.2302 C.ar      12 UNK        -0.0807 
     10 C10        33.2693   24.3634    2.1388 C.ar      12 UNK        -0.0894 
     11 C11        33.0821   25.7297    1.8847 C.ar      12 UNK        -0.0804 
     12 C12        32.4163   26.1144    0.7176 C.ar      12 UNK        -0.0824 
     13 C13        31.9770   25.1628   -0.2056 C.ar      12 UNK        -0.0762 
     14 C14        32.2099   23.8075    0.0421 C.ar      12 UNK        -0.0782 
     15 C15        31.2200   25.5931   -1.4522 C.3       12 UNK         0.0230 
     16 S16        29.4737   25.1215   -1.3054 S.3       12 UNK        -0.2608 
     17 C17        28.7033   25.9813   -2.7200 C.3       12 UNK        -0.0989 
     18 CA         27.7800   27.1602   -2.3052 C.3       5 UNK         0.0716 
     19 N          26.9123   26.8277   -1.1702 N.am      5 UNK        -0.4135 
     20 C          25.7354   26.1945   -1.2830 C.2       4 UNK         0.5031 
     21 O          25.1929   25.9528   -2.3628 O.2       4 UNK        -0.5229 
     22 CA         25.0427   25.7100    0.0088 C.3       4 UNK         0.0329 
     23 CB         25.2319   24.1926    0.1673 C.3       4 UNK        -0.2001 
     24 N          25.5222   26.3716    1.2227 N.am      4 UNK        -0.4303 
     25 C          25.3246   27.6640    1.5143 C.2       3 UNK         0.5044 
     26 O          24.5958   28.4052    0.8543 O.2       3 UNK        -0.5152 
     27 CA         26.0964   28.2538    2.7102 C.3       3 UNK         0.0319 
     28 CB         25.1454   28.5788    3.8728 C.3       3 UNK        -0.2001 
     29 N          27.2166   27.4502    3.2153 N.am      3 UNK        -0.4354 
     30 C          28.2853   27.0513    2.5112 C.2       2 UNK         0.4964 
     31 O          28.4205   27.2635    1.3058 O.2       2 UNK        -0.5047 
     32 CA         29.3747   26.2575    3.2531 C.3       2 UNK         0.0288 
     33 CB         29.0948   26.0549    4.7616 C.3       2 UNK        -0.2113 
     34 N          29.6274   24.9718    2.5946 N.am      2 UNK        -0.4145 
     35 C          28.7459   23.9754    2.4196 C.2       1 UNK         0.5006 
     36 O          27.5753   24.0094    2.8150 O.2       1 UNK        -0.5103 
     37 C          28.5530   28.4802   -2.1170 C.2       5 UNK         0.5055 
     38 O          28.7052   29.2106   -3.0982 O.2       5 UNK        -0.5220 
     39 N          29.0202   28.7913   -0.9005 N.am      6 UNK        -0.4450 
     40 CA         29.7665   30.0100   -0.5890 C.3       6 UNK         0.0367 
     41 CB         31.2252   29.9014   -1.0805 C.3       6 UNK        -0.1929 
     42 C          29.6852   30.2773    0.9174 C.2       6 UNK         0.5070 
     43 O          30.5773   29.8700    1.6636 O.2       6 UNK        -0.5237 
     44 N          28.6118   30.9575    1.3449 N.am      7 UNK        -0.4739 
     45 CA         28.3670   31.3402    2.7431 C.3       7 UNK         0.0276 
     46 CB         27.0029   32.0436    2.8563 C.3       7 UNK        -0.1927 
     47 C          29.4669   32.2384    3.3333 C.2       7 UNK         0.5013 
     48 O          29.8304   32.0692    4.4971 O.2       7 UNK        -0.5193 
     49 N          30.0034   33.1441    2.5024 N.am      8 UNK        -0.4253 
     50 CA         31.0656   34.0952    2.8443 C.3       8 UNK         0.0242 
     51 CB         31.2750   35.0577    1.6636 C.3       8 UNK        -0.2000 
     52 C          32.4019   33.4449    3.2484 C.2       8 UNK         0.4948 
     53 O          33.1896   34.0881    3.9429 O.2       8 UNK        -0.5275 
     54 N          32.6352   32.1929    2.8268 N.am      9 UNK        -0.4246 
     55 CA         33.8051   31.4015    3.2131 C.3       9 UNK         0.0261 
     56 CB         34.0323   30.2986    2.1705 C.3       9 UNK        -0.1959 
     57 C          33.7037   30.8241    4.6402 C.2       9 UNK         0.5033 
     58 O          34.7369   30.4597    5.2023 O.2       9 UNK        -0.5390 
     59 N          32.4852   30.7840    5.2068 N.am      10 UNK        -0.4215 
     60 CA         32.1579   30.4703    6.6034 C.3       10 UNK         0.0240 
     61 CB         32.6191   31.6224    7.5221 C.3       10 UNK        -0.1982 
     62 C          32.6400   29.0878    7.0910 C.2       10 UNK         0.4970 
     63 O          33.1317   28.9738    8.2158 O.2       10 UNK        -0.4916 
     64 N          32.4656   28.0554    6.2548 N.am      11 UNK        -0.4279 
     65 CA         32.7727   26.6537    6.6024 C.3       11 UNK         0.1003 
     66 C          31.7620   25.9900    7.5860 C.2       11 UNK         0.5709 
     67 N          30.6352   26.6124    7.9133 N.am      11 UNK        -0.7358 
     68 O          32.0113   24.8887    8.0703 O.2       11 UNK        -0.4999 
     69 C69        32.9898   25.7691    5.3463 C.3       12 UNK        -0.0954 
     70 S70        34.4121   26.3139    4.3483 S.3       12 UNK        -0.2268 
     71 C71        33.5890   26.8392    2.8088 C.3       12 UNK         0.0203 
     72 H72        26.0604   20.9861   -0.8854 H         1 UNK         0.0888 
     73 H73        26.7920   19.5091   -0.2506 H         1 UNK         0.0888 
     74 H74        25.9742   20.6299    0.8403 H         1 UNK         0.0888 
     75 H75        27.3839   21.9122    2.0118 H         1 UNK         0.3017 
     76 H76        29.7378   23.1007    0.7713 H         1 UNK         0.0873 
     77 H77        30.9321   22.6298    3.1418 H         1 UNK         0.0745 
     78 H78        29.8249   21.2970    3.2469 H         1 UNK         0.0745 
     79 H79        33.6988   21.4827    0.8288 H         1 UNK         0.0705 
     80 H80        33.4435   21.7793    2.5304 H         1 UNK         0.0705 
     81 H81        33.7671   24.0374    3.0403 H         1 UNK         0.1334 
     82 H82        32.2433   27.1643    0.5281 H         1 UNK         0.1417 
     83 H83        31.8628   23.0661   -0.6659 H         1 UNK         0.1562 
     84 H84        31.6554   25.1220   -2.3346 H         1 UNK         0.0748 
     85 H85        31.2945   26.6718   -1.5989 H         1 UNK         0.0748 
     86 H86        28.1062   25.2384   -3.2512 H         1 UNK         0.0940 
     87 H87        29.4654   26.2994   -3.4346 H         1 UNK         0.0940 
     88 H88        27.1309   27.3608   -3.1608 H         1 UNK         0.0703 
     89 H89        27.3106   26.9630   -0.2464 H         1 UNK         0.3081 
     90 H90        23.9751   25.9168   -0.0915 H         1 UNK         0.0719 
     91 H91        24.8243   23.6553   -0.6902 H         1 UNK         0.0809 
     92 H92        24.7262   23.8158    1.0566 H         1 UNK         0.0809 
     93 H93        26.2875   23.9306    0.2430 H         1 UNK         0.0809 
     94 H94        26.1346   25.8337    1.8223 H         1 UNK         0.2990 
     95 H95        26.5240   29.1860    2.3468 H         1 UNK         0.0690 
     96 H96        25.6590   29.1220    4.6663 H         1 UNK         0.0788 
     97 H97        24.7153   27.6745    4.3053 H         1 UNK         0.0788 
     98 H98        24.3177   29.2066    3.5395 H         1 UNK         0.0788 
     99 H99        27.1748   27.1898    4.1902 H         1 UNK         0.2993 
    100 H100       30.2903   26.8422    3.1544 H         1 UNK         0.0949 
    101 H101       29.8656   25.4428    5.2271 H         1 UNK         0.0767 
    102 H102       29.0779   27.0077    5.2920 H         1 UNK         0.0767 
    103 H103       28.1443   25.5527    4.9457 H         1 UNK         0.0767 
    104 H104       30.5432   24.8741    2.1757 H         1 UNK         0.3013 
    105 H105       28.8643   28.1632   -0.1101 H         1 UNK         0.3121 
    106 H106       29.2997   30.8551   -1.0998 H         1 UNK         0.0774 
    107 H107       31.7349   29.0419   -0.6486 H         1 UNK         0.0815 
    108 H108       31.7960   30.7891   -0.8053 H         1 UNK         0.0815 
    109 H109       31.2768   29.8092   -2.1651 H         1 UNK         0.0815 
    110 H110       27.9164   31.2397    0.6683 H         1 UNK         0.2987 
    111 H111       28.3409   30.4254    3.3392 H         1 UNK         0.0949 
    112 H112       26.9867   32.9849    2.3054 H         1 UNK         0.0806 
    113 H113       26.1888   31.4275    2.4769 H         1 UNK         0.0806 
    114 H114       26.7713   32.2741    3.8973 H         1 UNK         0.0806 
    115 H115       29.6390   33.1920    1.5620 H         1 UNK         0.3010 
    116 H116       30.7204   34.6753    3.7028 H         1 UNK         0.0829 
    117 H117       30.3608   35.6022    1.4265 H         1 UNK         0.0813 
    118 H118       32.0395   35.8007    1.8960 H         1 UNK         0.0813 
    119 H119       31.5968   34.5304    0.7645 H         1 UNK         0.0813 
    120 H120       31.9308   31.7218    2.2733 H         1 UNK         0.3038 
    121 H121       34.6813   32.0536    3.1976 H         1 UNK         0.0769 
    122 H122       33.1742   29.6324    2.0960 H         1 UNK         0.0811 
    123 H123       34.9053   29.6975    2.4274 H         1 UNK         0.0811 
    124 H124       34.2115   30.7202    1.1814 H         1 UNK         0.0811 
    125 H125       31.7011   31.1265    4.6612 H         1 UNK         0.3204 
    126 H126       31.0685   30.4371    6.6520 H         1 UNK         0.0748 
    127 H127       32.2239   32.5803    7.1831 H         1 UNK         0.0771 
    128 H128       32.2713   31.4750    8.5454 H         1 UNK         0.0771 
    129 H129       33.7065   31.7015    7.5543 H         1 UNK         0.0771 
    130 H130       32.0676   28.2221    5.3442 H         1 UNK         0.2980 
    131 H131       33.7207   26.6617    7.1441 H         1 UNK         0.0545 
    132 H132       29.9995   26.1681    8.5564 H         1 UNK         0.3459 
    133 H133       30.4224   27.5227    7.5423 H         1 UNK         0.3459 
    134 H134       33.1853   24.7337    5.6314 H         1 UNK         0.0616 
    135 H135       32.0930   25.7463    4.7281 H         1 UNK         0.0616 
    136 H136       34.3125   27.4263    2.2440 H         1 UNK         0.0634 
    137 H137       32.7660   27.5088    3.0610 H         1 UNK         0.0634 
@<TRIPOS>BOND
     1    1    2 1    
     2    1   72 1    
     3    1   73 1    
     4    1   74 1    
     5    2    3 2    
     6    2    4 am   BACKBONE|DICT|INTERRES
     7    4    5 1    
     8    4   75 1    
     9    5    6 1    
    10    5   35 1    
    11    5   76 1    
    12    6    7 1    
    13    6   77 1    
    14    6   78 1    
    15    7    8 1    
    16    8    9 1    
    17    8   79 1    
    18    8   80 1    
    19    9   10 ar   
    20    9   14 ar   
    21   10   11 ar   
    22   10   81 1    
    23   11   12 ar   
    24   11   71 1    
    25   12   13 ar   
    26   12   82 1    
    27   13   14 ar   
    28   13   15 1    
    29   14   83 1    
    30   15   16 1    
    31   15   84 1    
    32   15   85 1    
    33   16   17 1    
    34   17   18 1    
    35   17   86 1    
    36   17   87 1    
    37   18   19 1    
    38   18   37 1    
    39   18   88 1    
    40   19   20 am   BACKBONE|DICT|INTERRES
    41   19   89 1    
    42   20   21 2    
    43   20   22 1    
    44   22   23 1    
    45   22   24 1    
    46   22   90 1    
    47   23   91 1    
    48   23   92 1    
    49   23   93 1    
    50   24   25 am   BACKBONE|DICT|INTERRES
    51   24   94 1    
    52   25   26 2    
    53   25   27 1    
    54   27   28 1    
    55   27   29 1    
    56   27   95 1    
    57   28   96 1    
    58   28   97 1    
    59   28   98 1    
    60   29   30 am   BACKBONE|DICT|INTERRES
    61   29   99 1    
    62   30   31 2    
    63   30   32 1    
    64   32   33 1    
    65   32   34 1    
    66   32  100 1    
    67   33  101 1    
    68   33  102 1    
    69   33  103 1    
    70   34   35 am   BACKBONE|DICT|INTERRES
    71   34  104 1    
    72   35   36 2    
    73   37   38 2    
    74   37   39 am   BACKBONE|DICT|INTERRES
    75   39   40 1    
    76   39  105 1    
    77   40   41 1    
    78   40   42 1    
    79   40  106 1    
    80   41  107 1    
    81   41  108 1    
    82   41  109 1    
    83   42   43 2    
    84   42   44 am   BACKBONE|DICT|INTERRES
    85   44   45 1    
    86   44  110 1    
    87   45   46 1    
    88   45   47 1    
    89   45  111 1    
    90   46  112 1    
    91   46  113 1    
    92   46  114 1    
    93   47   48 2    
    94   47   49 am   BACKBONE|DICT|INTERRES
    95   49   50 1    
    96   49  115 1    
    97   50   51 1    
    98   50   52 1    
    99   50  116 1    
   100   51  117 1    
   101   51  118 1    
   102   51  119 1    
   103   52   53 2    
   104   52   54 am   BACKBONE|DICT|INTERRES
   105   54   55 1    
   106   54  120 1    
   107   55   56 1    
   108   55   57 1    
   109   55  121 1    
   110   56  122 1    
   111   56  123 1    
   112   56  124 1    
   113   57   58 2    
   114   57   59 am   BACKBONE|DICT|INTERRES
   115   59   60 1    
   116   59  125 1    
   117   60   61 1    
   118   60   62 1    
   119   60  126 1    
   120   61  127 1    
   121   61  128 1    
   122   61  129 1    
   123   62   63 2    
   124   62   64 am   BACKBONE|DICT|INTERRES
   125   64   65 1    
   126   64  130 1    
   127   65   66 1    
   128   65   69 1    
   129   65  131 1    
   130   66   67 am   BACKBONE|DICT|INTERRES
   131   66   68 2    
   132   67  132 1    
   133   67  133 1    
   134   69   70 1    
   135   69  134 1    
   136   69  135 1    
   137   70   71 1    
   138   71  136 1    
   139   71  137 1    
@<TRIPOS>SUBSTRUCTURE
     1 UNK         1 GROUP             0       ****    0 ROOT    
