@<TRIPOS>MOLECULE
3R136
137   139    1
SMALL
USER_CHARGES


@<TRIPOS>ATOM
      1 CA         29.6723   19.8781   -2.7977 C.3       0 UNK        -0.1979 
      2 C          29.5977   21.3782   -2.5537 C.2       0 UNK         0.4864 
      3 O          29.1629   22.1178   -3.4372 O.2       0 UNK        -0.5359 
      4 N          30.0258   21.8268   -1.3656 N.am      1 UNK        -0.4318 
      5 CA         30.0194   23.2296   -0.9308 C.3       1 UNK         0.0824 
      6 C6         30.7938   23.4177    0.3963 C.3       12 UNK        -0.0944 
      7 S7         32.5691   22.9971    0.2642 S.3       12 UNK        -0.2672 
      8 C8         32.8636   21.9791    1.7534 C.3       12 UNK         0.0333 
      9 C9         32.9593   22.8225    3.0205 C.ar      12 UNK        -0.0807 
     10 C10        34.1932   23.0920    3.6200 C.ar      12 UNK        -0.0894 
     11 C11        34.2624   23.8536    4.7931 C.ar      12 UNK        -0.0804 
     12 C12        33.0877   24.3969    5.3308 C.ar      12 UNK        -0.0824 
     13 C13        31.8487   24.1623    4.7252 C.ar      12 UNK        -0.0762 
     14 C14        31.7986   23.3255    3.6060 C.ar      12 UNK        -0.0782 
     15 C15        30.5874   24.8327    5.2796 C.3       12 UNK         0.0230 
     16 S16        29.2456   24.9925    4.0440 S.3       12 UNK        -0.2608 
     17 C17        28.1724   26.2835    4.7447 C.3       12 UNK        -0.0989 
     18 CA         28.3719   27.6589    4.0569 C.3       5 UNK         0.0716 
     19 N          28.2981   27.5723    2.5930 N.am      5 UNK        -0.4135 
     20 C          28.8850   28.4221    1.7352 C.2       4 UNK         0.5031 
     21 O          29.6225   29.3484    2.0719 O.2       4 UNK        -0.5229 
     22 CA         28.6088   28.2220    0.2317 C.3       4 UNK         0.0329 
     23 CB         29.7945   27.5152   -0.4427 C.3       4 UNK        -0.2001 
     24 N          27.3728   27.4927   -0.0650 N.am      4 UNK        -0.4303 
     25 C          26.1473   27.8858    0.3149 C.2       3 UNK         0.5044 
     26 O          25.9367   28.9352    0.9246 O.2       3 UNK        -0.5152 
     27 CA         24.9638   26.9425    0.0316 C.3       3 UNK         0.0319 
     28 CB         24.1302   27.4722   -1.1455 C.3       3 UNK        -0.2001 
     29 N          25.3344   25.5476   -0.2309 N.am      3 UNK        -0.4354 
     30 C          25.9916   24.7300    0.6054 C.2       2 UNK         0.4964 
     31 O          26.3890   25.0709    1.7211 O.2       2 UNK        -0.5047 
     32 CA         26.2812   23.2995    0.1015 C.3       2 UNK         0.0288 
     33 CB         25.5001   22.9126   -1.1760 C.3       2 UNK        -0.2113 
     34 N          27.7135   23.0430   -0.1013 N.am      2 UNK        -0.4145 
     35 C          28.5828   23.7853   -0.8086 C.2       1 UNK         0.5006 
     36 O          28.2914   24.8454   -1.3664 O.2       1 UNK        -0.5103 
     37 C          27.3695   28.6805    4.6330 C.2       5 UNK         0.5055 
     38 O          27.5899   29.1650    5.7442 O.2       5 UNK        -0.5220 
     39 N          26.2823   28.9757    3.9016 N.am      6 UNK        -0.4450 
     40 CA         25.3250   30.0312    4.2485 C.3       6 UNK         0.0367 
     41 CB         23.9586   29.7310    3.6102 C.3       6 UNK        -0.1929 
     42 C          25.8509   31.4064    3.8068 C.2       6 UNK         0.5070 
     43 O          25.6331   32.3982    4.5038 O.2       6 UNK        -0.5237 
     44 N          26.5613   31.4269    2.6718 N.am      7 UNK        -0.4739 
     45 CA         27.3861   32.5407    2.2072 C.3       7 UNK         0.0276 
     46 CB         27.6015   32.3708    0.6907 C.3       7 UNK        -0.1927 
     47 C          28.7302   32.5998    2.9658 C.2       7 UNK         0.5013 
     48 O          28.9783   31.8052    3.8741 O.2       7 UNK        -0.5193 
     49 N          29.5983   33.5312    2.5544 N.am      8 UNK        -0.4253 
     50 CA         30.9781   33.6583    3.0393 C.3       8 UNK         0.0242 
     51 CB         31.3151   35.1559    3.1678 C.3       8 UNK        -0.2000 
     52 C          31.9895   32.9282    2.1283 C.2       8 UNK         0.4948 
     53 O          33.1860   33.2084    2.2158 O.2       8 UNK        -0.5275 
     54 N          31.5035   32.0515    1.2372 N.am      9 UNK        -0.4246 
     55 CA         32.3051   31.3648    0.2235 C.3       9 UNK         0.0261 
     56 CB         31.4021   30.9472   -0.9478 C.3       9 UNK        -0.1959 
     57 C          33.0973   30.1705    0.7808 C.2       9 UNK         0.5033 
     58 O          34.2576   30.0000    0.4013 O.2       9 UNK        -0.5390 
     59 N          32.4767   29.3710    1.6599 N.am      10 UNK        -0.4215 
     60 CA         33.1347   28.2730    2.3757 C.3       10 UNK         0.0240 
     61 CB         32.1201   27.1488    2.6468 C.3       10 UNK        -0.1982 
     62 C          33.7961   28.7736    3.6736 C.2       10 UNK         0.4970 
     63 O          33.8115   29.9777    3.9410 O.2       10 UNK        -0.4916 
     64 N          34.3568   27.8322    4.4425 N.am      11 UNK        -0.4279 
     65 CA         35.1095   28.0682    5.6842 C.3       11 UNK         0.1003 
     66 C          34.3136   28.8603    6.7595 C.2       11 UNK         0.5709 
     67 N          34.9567   29.7911    7.4517 N.am      11 UNK        -0.7358 
     68 O          33.1372   28.5982    7.0040 O.2       11 UNK        -0.4999 
     69 C69        35.6492   26.7481    6.2972 C.3       12 UNK        -0.0954 
     70 S70        36.4166   25.6146    5.0869 S.3       12 UNK        -0.2268 
     71 C71        35.6022   24.0376    5.4975 C.3       12 UNK         0.0203 
     72 H72        30.0841   19.3446   -1.9412 H         1 UNK         0.0888 
     73 H73        28.6774   19.4810   -2.9979 H         1 UNK         0.0888 
     74 H74        30.3029   19.6695   -3.6616 H         1 UNK         0.0888 
     75 H75        30.4036   21.1677   -0.7004 H         1 UNK         0.3017 
     76 H76        30.5226   23.8157   -1.7031 H         1 UNK         0.0873 
     77 H77        30.7238   24.4456    0.7562 H         1 UNK         0.0745 
     78 H78        30.3284   22.7911    1.1552 H         1 UNK         0.0745 
     79 H79        32.0736   21.2338    1.8567 H         1 UNK         0.0705 
     80 H80        33.7886   21.4187    1.6093 H         1 UNK         0.0705 
     81 H81        35.0983   22.6860    3.1888 H         1 UNK         0.1334 
     82 H82        33.1294   24.9999    6.2260 H         1 UNK         0.1417 
     83 H83        30.8461   23.0805    3.1694 H         1 UNK         0.1562 
     84 H84        30.8435   25.8297    5.6422 H         1 UNK         0.0748 
     85 H85        30.2224   24.2654    6.1365 H         1 UNK         0.0748 
     86 H86        28.3492   26.3577    5.8197 H         1 UNK         0.0940 
     87 H87        27.1407   25.9444    4.6291 H         1 UNK         0.0940 
     88 H88        29.3660   28.0213    4.3244 H         1 UNK         0.0703 
     89 H89        27.7522   26.8026    2.2232 H         1 UNK         0.3081 
     90 H90        28.5052   29.2129   -0.2121 H         1 UNK         0.0719 
     91 H91        29.9315   26.5087   -0.0512 H         1 UNK         0.0809 
     92 H92        29.6524   27.4394   -1.5209 H         1 UNK         0.0809 
     93 H93        30.7286   28.0512   -0.2768 H         1 UNK         0.0809 
     94 H94        27.4738   26.6077   -0.5520 H         1 UNK         0.2990 
     95 H95        24.3351   26.9479    0.9244 H         1 UNK         0.0690 
     96 H96        23.2283   26.8781   -1.2938 H         1 UNK         0.0788 
     97 H97        24.6973   27.4634   -2.0773 H         1 UNK         0.0788 
     98 H98        23.8117   28.5005   -0.9675 H         1 UNK         0.0788 
     99 H99        25.0804   25.1804   -1.1368 H         1 UNK         0.2993 
    100 H100       25.9555   22.6328    0.9017 H         1 UNK         0.0949 
    101 H101       24.4259   23.0506   -1.0441 H         1 UNK         0.0767 
    102 H102       25.8124   23.4953   -2.0437 H         1 UNK         0.0767 
    103 H103       25.6549   21.8614   -1.4205 H         1 UNK         0.0767 
    104 H104       28.0652   22.2021    0.3334 H         1 UNK         0.3013 
    105 H105       26.1878   28.5730    2.9773 H         1 UNK         0.3121 
    106 H106       25.1926   30.0527    5.3326 H         1 UNK         0.0774 
    107 H107       23.2212   30.4768    3.9097 H         1 UNK         0.0815 
    108 H108       24.0034   29.7415    2.5210 H         1 UNK         0.0815 
    109 H109       23.5799   28.7576    3.9218 H         1 UNK         0.0815 
    110 H110       26.6498   30.5592    2.1578 H         1 UNK         0.2987 
    111 H111       26.8526   33.4763    2.3889 H         1 UNK         0.0949 
    112 H112       28.2105   31.4950    0.4664 H         1 UNK         0.0806 
    113 H113       26.6517   32.2549    0.1677 H         1 UNK         0.0806 
    114 H114       28.0980   33.2373    0.2532 H         1 UNK         0.0806 
    115 H115       29.3299   34.1535    1.8049 H         1 UNK         0.3010 
    116 H116       31.0685   33.2106    4.0315 H         1 UNK         0.0829 
    117 H117       30.6060   35.6673    3.8190 H         1 UNK         0.0813 
    118 H118       32.3064   35.3012    3.5994 H         1 UNK         0.0813 
    119 H119       31.3044   35.6571    2.1992 H         1 UNK         0.0813 
    120 H120       30.5189   31.8326    1.2708 H         1 UNK         0.3038 
    121 H121       33.0366   32.0748   -0.1696 H         1 UNK         0.0769 
    122 H122       30.5521   30.3573   -0.6118 H         1 UNK         0.0811 
    123 H123       31.9517   30.3509   -1.6778 H         1 UNK         0.0811 
    124 H124       31.0114   31.8194   -1.4721 H         1 UNK         0.0811 
    125 H125       31.5163   29.5755    1.9271 H         1 UNK         0.3204 
    126 H126       33.9245   27.8586    1.7456 H         1 UNK         0.0748 
    127 H127       32.6177   26.2491    3.0066 H         1 UNK         0.0771 
    128 H128       31.3857   27.4397    3.3963 H         1 UNK         0.0771 
    129 H129       31.5866   26.8623    1.7425 H         1 UNK         0.0771 
    130 H130       34.2991   26.8666    4.1551 H         1 UNK         0.2980 
    131 H131       35.9715   28.6724    5.3949 H         1 UNK         0.0545 
    132 H132       34.4593   30.3003    8.1652 H         1 UNK         0.3459 
    133 H133       35.9254   30.0025    7.2689 H         1 UNK         0.3459 
    134 H134       34.8568   26.2239    6.8305 H         1 UNK         0.0616 
    135 H135       36.4028   26.9764    7.0530 H         1 UNK         0.0616 
    136 H136       36.2771   23.2270    5.2188 H         1 UNK         0.0634 
    137 H137       35.4744   23.9535    6.5778 H         1 UNK         0.0634 
@<TRIPOS>BOND
     1    1    2 1    
     2    1   72 1    
     3    1   73 1    
     4    1   74 1    
     5    2    3 2    
     6    2    4 am   BACKBONE|DICT|INTERRES
     7    4    5 1    
     8    4   75 1    
     9    5    6 1    
    10    5   35 1    
    11    5   76 1    
    12    6    7 1    
    13    6   77 1    
    14    6   78 1    
    15    7    8 1    
    16    8    9 1    
    17    8   79 1    
    18    8   80 1    
    19    9   10 ar   
    20    9   14 ar   
    21   10   11 ar   
    22   10   81 1    
    23   11   12 ar   
    24   11   71 1    
    25   12   13 ar   
    26   12   82 1    
    27   13   14 ar   
    28   13   15 1    
    29   14   83 1    
    30   15   16 1    
    31   15   84 1    
    32   15   85 1    
    33   16   17 1    
    34   17   18 1    
    35   17   86 1    
    36   17   87 1    
    37   18   19 1    
    38   18   37 1    
    39   18   88 1    
    40   19   20 am   BACKBONE|DICT|INTERRES
    41   19   89 1    
    42   20   21 2    
    43   20   22 1    
    44   22   23 1    
    45   22   24 1    
    46   22   90 1    
    47   23   91 1    
    48   23   92 1    
    49   23   93 1    
    50   24   25 am   BACKBONE|DICT|INTERRES
    51   24   94 1    
    52   25   26 2    
    53   25   27 1    
    54   27   28 1    
    55   27   29 1    
    56   27   95 1    
    57   28   96 1    
    58   28   97 1    
    59   28   98 1    
    60   29   30 am   BACKBONE|DICT|INTERRES
    61   29   99 1    
    62   30   31 2    
    63   30   32 1    
    64   32   33 1    
    65   32   34 1    
    66   32  100 1    
    67   33  101 1    
    68   33  102 1    
    69   33  103 1    
    70   34   35 am   BACKBONE|DICT|INTERRES
    71   34  104 1    
    72   35   36 2    
    73   37   38 2    
    74   37   39 am   BACKBONE|DICT|INTERRES
    75   39   40 1    
    76   39  105 1    
    77   40   41 1    
    78   40   42 1    
    79   40  106 1    
    80   41  107 1    
    81   41  108 1    
    82   41  109 1    
    83   42   43 2    
    84   42   44 am   BACKBONE|DICT|INTERRES
    85   44   45 1    
    86   44  110 1    
    87   45   46 1    
    88   45   47 1    
    89   45  111 1    
    90   46  112 1    
    91   46  113 1    
    92   46  114 1    
    93   47   48 2    
    94   47   49 am   BACKBONE|DICT|INTERRES
    95   49   50 1    
    96   49  115 1    
    97   50   51 1    
    98   50   52 1    
    99   50  116 1    
   100   51  117 1    
   101   51  118 1    
   102   51  119 1    
   103   52   53 2    
   104   52   54 am   BACKBONE|DICT|INTERRES
   105   54   55 1    
   106   54  120 1    
   107   55   56 1    
   108   55   57 1    
   109   55  121 1    
   110   56  122 1    
   111   56  123 1    
   112   56  124 1    
   113   57   58 2    
   114   57   59 am   BACKBONE|DICT|INTERRES
   115   59   60 1    
   116   59  125 1    
   117   60   61 1    
   118   60   62 1    
   119   60  126 1    
   120   61  127 1    
   121   61  128 1    
   122   61  129 1    
   123   62   63 2    
   124   62   64 am   BACKBONE|DICT|INTERRES
   125   64   65 1    
   126   64  130 1    
   127   65   66 1    
   128   65   69 1    
   129   65  131 1    
   130   66   67 am   BACKBONE|DICT|INTERRES
   131   66   68 2    
   132   67  132 1    
   133   67  133 1    
   134   69   70 1    
   135   69  134 1    
   136   69  135 1    
   137   70   71 1    
   138   71  136 1    
   139   71  137 1    
@<TRIPOS>SUBSTRUCTURE
     1 UNK         1 GROUP             0       ****    0 ROOT    
