@<TRIPOS>MOLECULE
3R136
137   139    1
SMALL
USER_CHARGES


@<TRIPOS>ATOM
      1 CA         29.4593   19.8060   -3.5723 C.3       0 UNK        -0.1979 
      2 C          29.1140   21.0751   -2.8084 C.2       0 UNK         0.4864 
      3 O          28.2874   21.8643   -3.2690 O.2       0 UNK        -0.5359 
      4 N          29.7233   21.2748   -1.6328 N.am      1 UNK        -0.4318 
      5 CA         29.5498   22.4316   -0.7428 C.3       1 UNK         0.0824 
      6 C6         30.8017   22.6355    0.1529 C.3       12 UNK        -0.0944 
      7 S7         31.2222   21.1800    1.1809 S.3       12 UNK        -0.2672 
      8 C8         32.6125   21.8227    2.1751 C.3       12 UNK         0.0333 
      9 C9         32.2439   22.6841    3.3873 C.ar      12 UNK        -0.0807 
     10 C10        33.2450   22.9585    4.3233 C.ar      12 UNK        -0.0894 
     11 C11        32.9876   23.7537    5.4435 C.ar      12 UNK        -0.0804 
     12 C12        31.7123   24.3000    5.6191 C.ar      12 UNK        -0.0824 
     13 C13        30.7013   24.0554    4.6838 C.ar      12 UNK        -0.0762 
     14 C14        30.9667   23.2238    3.5909 C.ar      12 UNK        -0.0782 
     15 C15        29.3253   24.6965    4.8516 C.3       12 UNK         0.0230 
     16 S16        28.7333   25.5344    3.3376 S.3       12 UNK        -0.2608 
     17 C17        30.0899   26.7132    3.0060 C.3       12 UNK        -0.0989 
     18 CA         29.6423   28.1535    2.6583 C.3       5 UNK         0.0716 
     19 N          28.7001   28.2049    1.5386 N.am      5 UNK        -0.4135 
     20 C          28.2965   29.3314    0.9390 C.2       4 UNK         0.5031 
     21 O          28.7352   30.4438    1.2356 O.2       4 UNK        -0.5229 
     22 CA         27.2128   29.2442   -0.1503 C.3       4 UNK         0.0329 
     23 CB         27.8396   29.3242   -1.5561 C.3       4 UNK        -0.2001 
     24 N          26.2773   28.1140   -0.0341 N.am      4 UNK        -0.4303 
     25 C          26.5074   26.8085   -0.2278 C.2       3 UNK         0.5044 
     26 O          27.6165   26.3308   -0.4825 O.2       3 UNK        -0.5152 
     27 CA         25.2852   25.8869   -0.1098 C.3       3 UNK         0.0319 
     28 CB         24.2066   26.2276   -1.1579 C.3       3 UNK        -0.2001 
     29 N          25.7183   24.5062   -0.2899 N.am      3 UNK        -0.4354 
     30 C          25.1157   23.4172    0.1989 C.2       2 UNK         0.4964 
     31 O          24.0842   23.4534    0.8714 O.2       2 UNK        -0.5047 
     32 CA         25.7480   22.0506   -0.1278 C.3       2 UNK         0.0288 
     33 CB         24.8710   21.2753   -1.1258 C.3       2 UNK        -0.2113 
     34 N          27.1060   22.1425   -0.6721 N.am      2 UNK        -0.4145 
     35 C          28.2117   22.3922    0.0409 C.2       1 UNK         0.5006 
     36 O          28.1905   22.5777    1.2580 O.2       1 UNK        -0.5103 
     37 C          29.1050   28.9231    3.8839 C.2       5 UNK         0.5055 
     38 O          27.9292   28.7899    4.2295 O.2       5 UNK        -0.5220 
     39 N          29.9691   29.7627    4.4683 N.am      6 UNK        -0.4450 
     40 CA         29.7382   30.7247    5.5553 C.3       6 UNK         0.0367 
     41 CB         29.1522   30.0549    6.8135 C.3       6 UNK        -0.1929 
     42 C          28.9261   31.9654    5.1379 C.2       6 UNK         0.5070 
     43 O          29.1394   33.0313    5.7154 O.2       6 UNK        -0.5237 
     44 N          28.0376   31.8319    4.1451 N.am      7 UNK        -0.4739 
     45 CA         27.2625   32.9289    3.5657 C.3       7 UNK         0.0276 
     46 CB         26.0456   32.3635    2.8140 C.3       7 UNK        -0.1927 
     47 C          28.1231   33.8120    2.6484 C.2       7 UNK         0.5013 
     48 O          28.1533   35.0291    2.8354 O.2       7 UNK        -0.5193 
     49 N          28.8061   33.1850    1.6813 N.am      8 UNK        -0.4253 
     50 CA         29.7058   33.8497    0.7384 C.3       8 UNK         0.0242 
     51 CB         29.7039   33.0927   -0.6008 C.3       8 UNK        -0.2000 
     52 C          31.1293   33.9522    1.3024 C.2       8 UNK         0.4948 
     53 O          31.7403   35.0176    1.2080 O.2       8 UNK        -0.5275 
     54 N          31.6282   32.8539    1.8824 N.am      9 UNK        -0.4246 
     55 CA         32.9491   32.7443    2.4951 C.3       9 UNK         0.0261 
     56 CB         34.0320   32.5889    1.4111 C.3       9 UNK        -0.1959 
     57 C          32.9509   31.5320    3.4272 C.2       9 UNK         0.5033 
     58 O          32.2517   30.5520    3.1470 O.2       9 UNK        -0.5390 
     59 N          33.7436   31.6017    4.5042 N.am      10 UNK        -0.4215 
     60 CA         33.9280   30.5289    5.4856 C.3       10 UNK         0.0240 
     61 CB         34.8447   31.0203    6.6186 C.3       10 UNK        -0.1982 
     62 C          34.4890   29.2597    4.8243 C.2       10 UNK         0.4970 
     63 O          35.6310   29.2745    4.3607 O.2       10 UNK        -0.4916 
     64 N          33.6517   28.2170    4.7604 N.am      11 UNK        -0.4279 
     65 CA         33.9172   26.9388    4.0773 C.3       11 UNK         0.1003 
     66 C          34.0770   27.0552    2.5301 C.2       11 UNK         0.5709 
     67 N          33.5891   28.1180    1.8972 N.am      11 UNK        -0.7358 
     68 O          34.6154   26.1587    1.8856 O.2       11 UNK        -0.4999 
     69 C69        35.0347   26.1042    4.7680 C.3       12 UNK        -0.0954 
     70 S70        34.6211   25.7581    6.5138 S.3       12 UNK        -0.2268 
     71 C71        34.0943   24.0141    6.4592 C.3       12 UNK         0.0203 
     72 H72        28.5651   19.2003   -3.7169 H         1 UNK         0.0888 
     73 H73        29.8637   20.0572   -4.5525 H         1 UNK         0.0888 
     74 H74        30.1975   19.2015   -3.0455 H         1 UNK         0.0888 
     75 H75        30.3628   20.5739   -1.2839 H         1 UNK         0.3017 
     76 H76        29.4802   23.3194   -1.3757 H         1 UNK         0.0873 
     77 H77        30.6830   23.5213    0.7782 H         1 UNK         0.0745 
     78 H78        31.6631   22.8495   -0.4819 H         1 UNK         0.0745 
     79 H79        33.1852   20.9618    2.5231 H         1 UNK         0.0705 
     80 H80        33.2804   22.3915    1.5266 H         1 UNK         0.0705 
     81 H81        34.2349   22.5471    4.1780 H         1 UNK         0.1334 
     82 H82        31.5168   24.9282    6.4777 H         1 UNK         0.1417 
     83 H83        30.1665   23.0252    2.8940 H         1 UNK         0.1562 
     84 H84        29.3314   25.4205    5.6679 H         1 UNK         0.0748 
     85 H85        28.6077   23.9232    5.1285 H         1 UNK         0.0748 
     86 H86        30.6811   26.3080    2.1829 H         1 UNK         0.0940 
     87 H87        30.7632   26.7382    3.8625 H         1 UNK         0.0940 
     88 H88        30.5351   28.6782    2.3117 H         1 UNK         0.0703 
     89 H89        28.3144   27.3234    1.2235 H         1 UNK         0.3081 
     90 H90        26.5966   30.1359   -0.0259 H         1 UNK         0.0719 
     91 H91        28.5050   28.4841   -1.7563 H         1 UNK         0.0809 
     92 H92        28.4301   30.2349   -1.6659 H         1 UNK         0.0809 
     93 H93        27.0743   29.3397   -2.3320 H         1 UNK         0.0809 
     94 H94        25.3334   28.3800    0.2112 H         1 UNK         0.2990 
     95 H95        24.8741   26.0070    0.8949 H         1 UNK         0.0690 
     96 H96        23.3516   25.5556   -1.0805 H         1 UNK         0.0788 
     97 H97        24.5973   26.1525   -2.1736 H         1 UNK         0.0788 
     98 H98        23.8254   27.2408   -1.0276 H         1 UNK         0.0788 
     99 H99        26.6037   24.4092   -0.7702 H         1 UNK         0.2993 
    100 H100       25.7885   21.4844    0.8054 H         1 UNK         0.0949 
    101 H101       25.2688   20.2773   -1.3111 H         1 UNK         0.0767 
    102 H102       23.8566   21.1523   -0.7435 H         1 UNK         0.0767 
    103 H103       24.7989   21.7918   -2.0839 H         1 UNK         0.0767 
    104 H104       27.2187   22.0160   -1.6749 H         1 UNK         0.3013 
    105 H105       30.8666   29.8912    3.9985 H         1 UNK         0.3121 
    106 H106       30.7272   31.0976    5.8228 H         1 UNK         0.0774 
    107 H107       29.1304   30.7561    7.6486 H         1 UNK         0.0815 
    108 H108       28.1290   29.7124    6.6576 H         1 UNK         0.0815 
    109 H109       29.7509   29.1988    7.1241 H         1 UNK         0.0815 
    110 H110       27.9091   30.9098    3.7468 H         1 UNK         0.2987 
    111 H111       26.8919   33.5568    4.3793 H         1 UNK         0.0949 
    112 H112       26.3388   31.7000    2.0005 H         1 UNK         0.0806 
    113 H113       25.3940   31.8020    3.4837 H         1 UNK         0.0806 
    114 H114       25.4486   33.1669    2.3804 H         1 UNK         0.0806 
    115 H115       28.7266   32.1713    1.5964 H         1 UNK         0.3010 
    116 H116       29.3443   34.8630    0.5489 H         1 UNK         0.0829 
    117 H117       28.7000   33.0361   -1.0218 H         1 UNK         0.0813 
    118 H118       30.3356   33.5969   -1.3332 H         1 UNK         0.0813 
    119 H119       30.0786   32.0740   -0.4945 H         1 UNK         0.0813 
    120 H120       31.0672   32.0125    1.9386 H         1 UNK         0.3038 
    121 H121       33.1423   33.6430    3.0847 H         1 UNK         0.0769 
    122 H122       34.0711   33.4594    0.7564 H         1 UNK         0.0811 
    123 H123       33.8528   31.7107    0.7892 H         1 UNK         0.0811 
    124 H124       35.0213   32.4768    1.8567 H         1 UNK         0.0811 
    125 H125       34.3094   32.4281    4.6350 H         1 UNK         0.3204 
    126 H126       32.9545   30.2994    5.9219 H         1 UNK         0.0748 
    127 H127       34.4135   31.8783    7.1350 H         1 UNK         0.0771 
    128 H128       34.9961   30.2377    7.3635 H         1 UNK         0.0771 
    129 H129       35.8286   31.3108    6.2476 H         1 UNK         0.0771 
    130 H130       32.7358   28.3060    5.1721 H         1 UNK         0.2980 
    131 H131       32.9987   26.3662    4.1854 H         1 UNK         0.0545 
    132 H132       33.6901   28.1769    0.8971 H         1 UNK         0.3459 
    133 H133       33.1549   28.8784    2.4060 H         1 UNK         0.3459 
    134 H134       35.9890   26.6310    4.7335 H         1 UNK         0.0616 
    135 H135       35.1970   25.1581    4.2497 H         1 UNK         0.0616 
    136 H136       33.7445   23.7226    7.4503 H         1 UNK         0.0634 
    137 H137       34.9670   23.3935    6.2496 H         1 UNK         0.0634 
@<TRIPOS>BOND
     1    1    2 1    
     2    1   72 1    
     3    1   73 1    
     4    1   74 1    
     5    2    3 2    
     6    2    4 am   BACKBONE|DICT|INTERRES
     7    4    5 1    
     8    4   75 1    
     9    5    6 1    
    10    5   35 1    
    11    5   76 1    
    12    6    7 1    
    13    6   77 1    
    14    6   78 1    
    15    7    8 1    
    16    8    9 1    
    17    8   79 1    
    18    8   80 1    
    19    9   10 ar   
    20    9   14 ar   
    21   10   11 ar   
    22   10   81 1    
    23   11   12 ar   
    24   11   71 1    
    25   12   13 ar   
    26   12   82 1    
    27   13   14 ar   
    28   13   15 1    
    29   14   83 1    
    30   15   16 1    
    31   15   84 1    
    32   15   85 1    
    33   16   17 1    
    34   17   18 1    
    35   17   86 1    
    36   17   87 1    
    37   18   19 1    
    38   18   37 1    
    39   18   88 1    
    40   19   20 am   BACKBONE|DICT|INTERRES
    41   19   89 1    
    42   20   21 2    
    43   20   22 1    
    44   22   23 1    
    45   22   24 1    
    46   22   90 1    
    47   23   91 1    
    48   23   92 1    
    49   23   93 1    
    50   24   25 am   BACKBONE|DICT|INTERRES
    51   24   94 1    
    52   25   26 2    
    53   25   27 1    
    54   27   28 1    
    55   27   29 1    
    56   27   95 1    
    57   28   96 1    
    58   28   97 1    
    59   28   98 1    
    60   29   30 am   BACKBONE|DICT|INTERRES
    61   29   99 1    
    62   30   31 2    
    63   30   32 1    
    64   32   33 1    
    65   32   34 1    
    66   32  100 1    
    67   33  101 1    
    68   33  102 1    
    69   33  103 1    
    70   34   35 am   BACKBONE|DICT|INTERRES
    71   34  104 1    
    72   35   36 2    
    73   37   38 2    
    74   37   39 am   BACKBONE|DICT|INTERRES
    75   39   40 1    
    76   39  105 1    
    77   40   41 1    
    78   40   42 1    
    79   40  106 1    
    80   41  107 1    
    81   41  108 1    
    82   41  109 1    
    83   42   43 2    
    84   42   44 am   BACKBONE|DICT|INTERRES
    85   44   45 1    
    86   44  110 1    
    87   45   46 1    
    88   45   47 1    
    89   45  111 1    
    90   46  112 1    
    91   46  113 1    
    92   46  114 1    
    93   47   48 2    
    94   47   49 am   BACKBONE|DICT|INTERRES
    95   49   50 1    
    96   49  115 1    
    97   50   51 1    
    98   50   52 1    
    99   50  116 1    
   100   51  117 1    
   101   51  118 1    
   102   51  119 1    
   103   52   53 2    
   104   52   54 am   BACKBONE|DICT|INTERRES
   105   54   55 1    
   106   54  120 1    
   107   55   56 1    
   108   55   57 1    
   109   55  121 1    
   110   56  122 1    
   111   56  123 1    
   112   56  124 1    
   113   57   58 2    
   114   57   59 am   BACKBONE|DICT|INTERRES
   115   59   60 1    
   116   59  125 1    
   117   60   61 1    
   118   60   62 1    
   119   60  126 1    
   120   61  127 1    
   121   61  128 1    
   122   61  129 1    
   123   62   63 2    
   124   62   64 am   BACKBONE|DICT|INTERRES
   125   64   65 1    
   126   64  130 1    
   127   65   66 1    
   128   65   69 1    
   129   65  131 1    
   130   66   67 am   BACKBONE|DICT|INTERRES
   131   66   68 2    
   132   67  132 1    
   133   67  133 1    
   134   69   70 1    
   135   69  134 1    
   136   69  135 1    
   137   70   71 1    
   138   71  136 1    
   139   71  137 1    
@<TRIPOS>SUBSTRUCTURE
     1 UNK         1 GROUP             0       ****    0 ROOT    
