@<TRIPOS>MOLECULE
3R136
137   139    1
SMALL
USER_CHARGES


@<TRIPOS>ATOM
      1 CA         32.2826   29.2330   -2.7265 C.3       0 UNK        -0.1979 
      2 C          31.0299   29.1640   -1.8666 C.2       0 UNK         0.4864 
      3 O          30.2035   30.0739   -1.9158 O.2       0 UNK        -0.5359 
      4 N          30.8700   28.0812   -1.0936 N.am      1 UNK        -0.4318 
      5 CA         29.7517   27.8448   -0.1680 C.3       1 UNK         0.0824 
      6 C6         30.1774   26.8884    0.9733 C.3       12 UNK        -0.0944 
      7 S7         30.5186   25.1795    0.4180 S.3       12 UNK        -0.2672 
      8 C8         31.8917   24.7030    1.5138 C.3       12 UNK         0.0333 
      9 C9         31.4668   24.6714    2.9748 C.ar      12 UNK        -0.0807 
     10 C10        31.9867   25.5989    3.8829 C.ar      12 UNK        -0.0894 
     11 C11        31.6064   25.5630    5.2274 C.ar      12 UNK        -0.0804 
     12 C12        30.6735   24.6159    5.6558 C.ar      12 UNK        -0.0824 
     13 C13        30.1429   23.6869    4.7568 C.ar      12 UNK        -0.0762 
     14 C14        30.5590   23.7060    3.4216 C.ar      12 UNK        -0.0782 
     15 C15        29.1200   22.6652    5.2339 C.3       12 UNK         0.0230 
     16 S16        27.5084   22.8549    4.4057 S.3       12 UNK        -0.2608 
     17 C17        27.0949   24.6061    4.7358 C.3       12 UNK        -0.0989 
     18 CA         27.3398   25.5183    3.4981 C.3       5 UNK         0.0716 
     19 N          26.6899   25.0350    2.2726 N.am      5 UNK        -0.4135 
     20 C          25.3700   24.8976    2.0695 C.2       4 UNK         0.5031 
     21 O          24.5149   25.1356    2.9238 O.2       4 UNK        -0.5229 
     22 CA         24.9141   24.4397    0.6747 C.3       4 UNK         0.0329 
     23 CB         23.9133   25.4427    0.0725 C.3       4 UNK        -0.2001 
     24 N          26.0378   24.3070   -0.2523 N.am      4 UNK        -0.4303 
     25 C          26.4212   23.1817   -0.8712 C.2       3 UNK         0.5044 
     26 O          25.9074   22.0808   -0.6664 O.2       3 UNK        -0.5152 
     27 CA         27.5778   23.3059   -1.8900 C.3       3 UNK         0.0319 
     28 CB         27.4187   22.3447   -3.0870 C.3       3 UNK        -0.2001 
     29 N          27.8085   24.6847   -2.3458 N.am      3 UNK        -0.4354 
     30 C          26.9456   25.4907   -2.9887 C.2       2 UNK         0.4964 
     31 O          25.8666   25.1121   -3.4458 O.2       2 UNK        -0.5047 
     32 CA         27.3293   26.9814   -3.0998 C.3       2 UNK         0.0288 
     33 CB         26.1060   27.9062   -2.9169 C.3       2 UNK        -0.2113 
     34 N          28.4181   27.3949   -2.2010 N.am      2 UNK        -0.4145 
     35 C          28.4419   27.3868   -0.8571 C.2       1 UNK         0.5006 
     36 O          27.5052   26.9843   -0.1585 O.2       1 UNK        -0.5103 
     37 C          27.0019   27.0044    3.7622 C.2       5 UNK         0.5055 
     38 O          26.8716   27.4132    4.9175 O.2       5 UNK        -0.5220 
     39 N          26.8467   27.7905    2.6843 N.am      6 UNK        -0.4450 
     40 CA         26.3118   29.1562    2.6807 C.3       6 UNK         0.0367 
     41 CB         25.7517   29.4565    1.2765 C.3       6 UNK        -0.1929 
     42 C          27.2956   30.2435    3.1672 C.2       6 UNK         0.5070 
     43 O          27.3503   31.3165    2.5651 O.2       6 UNK        -0.5237 
     44 N          28.0266   29.9626    4.2567 N.am      7 UNK        -0.4739 
     45 CA         28.9264   30.8619    4.9962 C.3       7 UNK         0.0276 
     46 CB         28.0966   31.8657    5.8237 C.3       7 UNK        -0.1927 
     47 C          29.9797   31.5545    4.1070 C.2       7 UNK         0.5013 
     48 O          30.0885   32.7832    4.1158 O.2       7 UNK        -0.5193 
     49 N          30.7235   30.7501    3.3423 N.am      8 UNK        -0.4253 
     50 CA         31.7549   31.1931    2.4087 C.3       8 UNK         0.0242 
     51 CB         31.1039   31.6084    1.0763 C.3       8 UNK        -0.2000 
     52 C          32.7954   30.0780    2.2403 C.2       8 UNK         0.4948 
     53 O          32.6608   29.0164    2.8562 O.2       8 UNK        -0.5275 
     54 N          33.8245   30.3430    1.4226 N.am      9 UNK        -0.4246 
     55 CA         34.9755   29.4767    1.1439 C.3       9 UNK         0.0261 
     56 CB         34.5454   28.1894    0.4015 C.3       9 UNK        -0.1959 
     57 C          35.7998   29.2158    2.4176 C.2       9 UNK         0.5033 
     58 O          36.6243   30.0552    2.7813 O.2       9 UNK        -0.5390 
     59 N          35.5561   28.0753    3.0749 N.am      10 UNK        -0.4215 
     60 CA         36.1840   27.6819    4.3387 C.3       10 UNK         0.0240 
     61 CB         36.0389   26.1603    4.5140 C.3       10 UNK        -0.1982 
     62 C          35.6354   28.4337    5.5688 C.2       10 UNK         0.4970 
     63 O          36.2646   28.3736    6.6260 O.2       10 UNK        -0.4916 
     64 N          34.4902   29.1097    5.4261 N.am      11 UNK        -0.4279 
     65 CA         33.8143   29.8862    6.4750 C.3       11 UNK         0.1003 
     66 C          33.3320   31.2638    5.9424 C.2       11 UNK         0.5709 
     67 N          32.4173   31.9344    6.6303 N.am      11 UNK        -0.7358 
     68 O          33.8204   31.7643    4.9318 O.2       11 UNK        -0.4999 
     69 C69        32.7405   29.0457    7.2286 C.3       12 UNK        -0.0954 
     70 S70        31.5530   28.1883    6.1355 S.3       12 UNK        -0.2268 
     71 C71        32.2437   26.5108    6.2278 C.3       12 UNK         0.0203 
     72 H72        32.8306   28.2910   -2.7257 H         1 UNK         0.0888 
     73 H73        32.0189   29.4674   -3.7575 H         1 UNK         0.0888 
     74 H74        32.9455   30.0157   -2.3584 H         1 UNK         0.0888 
     75 H75        31.5652   27.3479   -1.1149 H         1 UNK         0.3017 
     76 H76        29.5011   28.7981    0.2994 H         1 UNK         0.0873 
     77 H77        31.0653   27.2888    1.4648 H         1 UNK         0.0745 
     78 H78        29.4146   26.8568    1.7490 H         1 UNK         0.0745 
     79 H79        32.7284   25.3861    1.3624 H         1 UNK         0.0705 
     80 H80        32.2477   23.7137    1.2232 H         1 UNK         0.0705 
     81 H81        32.6935   26.3462    3.5498 H         1 UNK         0.1334 
     82 H82        30.3704   24.5951    6.6938 H         1 UNK         0.1417 
     83 H83        30.1522   22.9874    2.7227 H         1 UNK         0.1562 
     84 H84        28.9709   22.7352    6.3125 H         1 UNK         0.0748 
     85 H85        29.5009   21.6613    5.0417 H         1 UNK         0.0748 
     86 H86        27.6744   24.9570    5.5916 H         1 UNK         0.0940 
     87 H87        26.0503   24.6547    5.0476 H         1 UNK         0.0940 
     88 H88        28.4096   25.5000    3.2957 H         1 UNK         0.0703 
     89 H89        27.3095   24.8048    1.5100 H         1 UNK         0.3081 
     90 H90        24.4084   23.4809    0.8049 H         1 UNK         0.0719 
     91 H91        23.0302   25.5482    0.7041 H         1 UNK         0.0809 
     92 H92        24.3564   26.4329   -0.0406 H         1 UNK         0.0809 
     93 H93        23.5706   25.1170   -0.9100 H         1 UNK         0.0809 
     94 H94        26.5242   25.1689   -0.4772 H         1 UNK         0.2990 
     95 H95        28.4805   23.0139   -1.3513 H         1 UNK         0.0690 
     96 H96        26.4899   22.5220   -3.6299 H         1 UNK         0.0788 
     97 H97        27.4057   21.3057   -2.7555 H         1 UNK         0.0788 
     98 H98        28.2444   22.4475   -3.7910 H         1 UNK         0.0788 
     99 H99        28.6708   25.1014   -2.0229 H         1 UNK         0.2993 
    100 H100       27.7014   27.1190   -4.1162 H         1 UNK         0.0949 
    101 H101       25.6335   27.7665   -1.9439 H         1 UNK         0.0767 
    102 H102       26.3863   28.9559   -3.0047 H         1 UNK         0.0767 
    103 H103       25.3477   27.7115   -3.6763 H         1 UNK         0.0767 
    104 H104       29.2478   27.7410   -2.6623 H         1 UNK         0.3013 
    105 H105       27.0042   27.3833    1.7677 H         1 UNK         0.3121 
    106 H106       25.4688   29.1801    3.3747 H         1 UNK         0.0774 
    107 H107       25.2271   30.4126    1.2586 H         1 UNK         0.0815 
    108 H108       26.5442   29.5066    0.5291 H         1 UNK         0.0815 
    109 H109       25.0391   28.6952    0.9592 H         1 UNK         0.0815 
    110 H110       27.8693   29.0497    4.6759 H         1 UNK         0.2987 
    111 H111       29.4808   30.2414    5.7007 H         1 UNK         0.0949 
    112 H112       27.4026   31.3529    6.4896 H         1 UNK         0.0806 
    113 H113       28.7417   32.4870    6.4462 H         1 UNK         0.0806 
    114 H114       27.5176   32.5335    5.1848 H         1 UNK         0.0806 
    115 H115       30.6545   29.7454    3.4471 H         1 UNK         0.3010 
    116 H116       32.2741   32.0557    2.8303 H         1 UNK         0.0829 
    117 H117       30.4290   32.4532    1.2157 H         1 UNK         0.0813 
    118 H118       31.8429   31.9107    0.3340 H         1 UNK         0.0813 
    119 H119       30.5215   30.7955    0.6494 H         1 UNK         0.0813 
    120 H120       33.8695   31.2611    1.0030 H         1 UNK         0.3038 
    121 H121       35.6272   30.0348    0.4696 H         1 UNK         0.0769 
    122 H122       34.1229   28.4308   -0.5722 H         1 UNK         0.0811 
    123 H123       35.4004   27.5360    0.2222 H         1 UNK         0.0811 
    124 H124       33.7982   27.6132    0.9463 H         1 UNK         0.0811 
    125 H125       34.8241   27.4776    2.7202 H         1 UNK         0.3204 
    126 H126       37.2497   27.9125    4.2766 H         1 UNK         0.0748 
    127 H127       36.5372   25.6214    3.7079 H         1 UNK         0.0771 
    128 H128       36.4910   25.8274    5.4494 H         1 UNK         0.0771 
    129 H129       34.9950   25.8479    4.5272 H         1 UNK         0.0771 
    130 H130       34.0308   29.1259    4.5225 H         1 UNK         0.2980 
    131 H131       34.5655   30.1674    7.2149 H         1 UNK         0.0545 
    132 H132       32.0260   31.5634    7.4808 H         1 UNK         0.3459 
    133 H133       32.1172   32.8336    6.2880 H         1 UNK         0.3459 
    134 H134       33.2489   28.3036    7.8458 H         1 UNK         0.0616 
    135 H135       32.1798   29.6531    7.9395 H         1 UNK         0.0616 
    136 H136       32.1209   26.1336    7.2443 H         1 UNK         0.0634 
    137 H137       33.3173   26.5493    6.0474 H         1 UNK         0.0634 
@<TRIPOS>BOND
     1    1    2 1    
     2    1   72 1    
     3    1   73 1    
     4    1   74 1    
     5    2    3 2    
     6    2    4 am   BACKBONE|DICT|INTERRES
     7    4    5 1    
     8    4   75 1    
     9    5    6 1    
    10    5   35 1    
    11    5   76 1    
    12    6    7 1    
    13    6   77 1    
    14    6   78 1    
    15    7    8 1    
    16    8    9 1    
    17    8   79 1    
    18    8   80 1    
    19    9   10 ar   
    20    9   14 ar   
    21   10   11 ar   
    22   10   81 1    
    23   11   12 ar   
    24   11   71 1    
    25   12   13 ar   
    26   12   82 1    
    27   13   14 ar   
    28   13   15 1    
    29   14   83 1    
    30   15   16 1    
    31   15   84 1    
    32   15   85 1    
    33   16   17 1    
    34   17   18 1    
    35   17   86 1    
    36   17   87 1    
    37   18   19 1    
    38   18   37 1    
    39   18   88 1    
    40   19   20 am   BACKBONE|DICT|INTERRES
    41   19   89 1    
    42   20   21 2    
    43   20   22 1    
    44   22   23 1    
    45   22   24 1    
    46   22   90 1    
    47   23   91 1    
    48   23   92 1    
    49   23   93 1    
    50   24   25 am   BACKBONE|DICT|INTERRES
    51   24   94 1    
    52   25   26 2    
    53   25   27 1    
    54   27   28 1    
    55   27   29 1    
    56   27   95 1    
    57   28   96 1    
    58   28   97 1    
    59   28   98 1    
    60   29   30 am   BACKBONE|DICT|INTERRES
    61   29   99 1    
    62   30   31 2    
    63   30   32 1    
    64   32   33 1    
    65   32   34 1    
    66   32  100 1    
    67   33  101 1    
    68   33  102 1    
    69   33  103 1    
    70   34   35 am   BACKBONE|DICT|INTERRES
    71   34  104 1    
    72   35   36 2    
    73   37   38 2    
    74   37   39 am   BACKBONE|DICT|INTERRES
    75   39   40 1    
    76   39  105 1    
    77   40   41 1    
    78   40   42 1    
    79   40  106 1    
    80   41  107 1    
    81   41  108 1    
    82   41  109 1    
    83   42   43 2    
    84   42   44 am   BACKBONE|DICT|INTERRES
    85   44   45 1    
    86   44  110 1    
    87   45   46 1    
    88   45   47 1    
    89   45  111 1    
    90   46  112 1    
    91   46  113 1    
    92   46  114 1    
    93   47   48 2    
    94   47   49 am   BACKBONE|DICT|INTERRES
    95   49   50 1    
    96   49  115 1    
    97   50   51 1    
    98   50   52 1    
    99   50  116 1    
   100   51  117 1    
   101   51  118 1    
   102   51  119 1    
   103   52   53 2    
   104   52   54 am   BACKBONE|DICT|INTERRES
   105   54   55 1    
   106   54  120 1    
   107   55   56 1    
   108   55   57 1    
   109   55  121 1    
   110   56  122 1    
   111   56  123 1    
   112   56  124 1    
   113   57   58 2    
   114   57   59 am   BACKBONE|DICT|INTERRES
   115   59   60 1    
   116   59  125 1    
   117   60   61 1    
   118   60   62 1    
   119   60  126 1    
   120   61  127 1    
   121   61  128 1    
   122   61  129 1    
   123   62   63 2    
   124   62   64 am   BACKBONE|DICT|INTERRES
   125   64   65 1    
   126   64  130 1    
   127   65   66 1    
   128   65   69 1    
   129   65  131 1    
   130   66   67 am   BACKBONE|DICT|INTERRES
   131   66   68 2    
   132   67  132 1    
   133   67  133 1    
   134   69   70 1    
   135   69  134 1    
   136   69  135 1    
   137   70   71 1    
   138   71  136 1    
   139   71  137 1    
@<TRIPOS>SUBSTRUCTURE
     1 UNK         1 GROUP             0       ****    0 ROOT    
