@<TRIPOS>MOLECULE
3R136
137   139    1
SMALL
USER_CHARGES


@<TRIPOS>ATOM
      1 CA         31.0981   24.4562   -3.6984 C.3       0 UNK        -0.1979 
      2 C          30.3278   24.7355   -2.4177 C.2       0 UNK         0.4864 
      3 O          29.4031   25.5493   -2.4319 O.2       0 UNK        -0.5359 
      4 N          30.6927   24.0562   -1.3192 N.am      1 UNK        -0.4318 
      5 CA         30.1384   24.1960    0.0370 C.3       1 UNK         0.0824 
      6 C6         30.7087   23.1243    0.9941 C.3       12 UNK        -0.0944 
      7 S7         32.4460   23.4357    1.4423 S.3       12 UNK        -0.2672 
      8 C8         32.5241   22.6407    3.0813 C.3       12 UNK         0.0333 
      9 C9         32.1653   23.5971    4.2128 C.ar      12 UNK        -0.0807 
     10 C10        33.1816   24.2253    4.9397 C.ar      12 UNK        -0.0894 
     11 C11        32.8740   25.0652    6.0146 C.ar      12 UNK        -0.0804 
     12 C12        31.5356   25.2936    6.3472 C.ar      12 UNK        -0.0824 
     13 C13        30.5087   24.6931    5.6127 C.ar      12 UNK        -0.0762 
     14 C14        30.8296   23.8307    4.5611 C.ar      12 UNK        -0.0782 
     15 C15        29.0557   24.9663    5.9729 C.3       12 UNK         0.0230 
     16 S16        28.5404   26.6390    5.4714 S.3       12 UNK        -0.2608 
     17 C17        28.0280   26.3968    3.7336 C.3       12 UNK        -0.0989 
     18 CA         27.6911   27.7440    3.0348 C.3       5 UNK         0.0716 
     19 N          27.9943   27.7246    1.5950 N.am      5 UNK        -0.4135 
     20 C          28.1655   28.8248    0.8439 C.2       4 UNK         0.5031 
     21 O          27.9792   29.9672    1.2635 O.2       4 UNK        -0.5229 
     22 CA         28.5702   28.6391   -0.6246 C.3       4 UNK         0.0329 
     23 CB         30.0792   28.3800   -0.7463 C.3       4 UNK        -0.2001 
     24 N          27.8267   27.5916   -1.3238 N.am      4 UNK        -0.4303 
     25 C          26.5101   27.6301   -1.5763 C.2       3 UNK         0.5044 
     26 O          25.7524   28.4929   -1.1343 O.2       3 UNK        -0.5152 
     27 CA         25.9465   26.5271   -2.4826 C.3       3 UNK         0.0319 
     28 CB         26.3385   26.7745   -3.9489 C.3       3 UNK        -0.2001 
     29 N          26.4359   25.2172   -2.0623 N.am      3 UNK        -0.4354 
     30 C          25.7702   24.3883   -1.2471 C.2       2 UNK         0.4964 
     31 O          24.6200   24.5856   -0.8537 O.2       2 UNK        -0.5047 
     32 CA         26.5141   23.1263   -0.7720 C.3       2 UNK         0.0288 
     33 CB         26.1901   21.9341   -1.6870 C.3       2 UNK        -0.2113 
     34 N          27.9691   23.2860   -0.6851 N.am      2 UNK        -0.4145 
     35 C          28.5991   24.1699    0.1031 C.2       1 UNK         0.5006 
     36 O          28.0220   24.9650    0.8457 O.2       1 UNK        -0.5103 
     37 C          26.2723   28.2676    3.3736 C.2       5 UNK         0.5055 
     38 O          25.9705   28.4725    4.5499 O.2       5 UNK        -0.5220 
     39 N          25.4378   28.5432    2.3577 N.am      6 UNK        -0.4450 
     40 CA         24.2073   29.3280    2.5010 C.3       6 UNK         0.0367 
     41 CB         23.3931   29.2515    1.2003 C.3       6 UNK        -0.1929 
     42 C          24.4847   30.7984    2.8797 C.2       6 UNK         0.5070 
     43 O          23.6334   31.4232    3.5130 O.2       6 UNK        -0.5237 
     44 N          25.6662   31.3120    2.5076 N.am      7 UNK        -0.4739 
     45 CA         26.1964   32.6045    2.9346 C.3       7 UNK         0.0276 
     46 CB         26.6586   33.4051    1.7033 C.3       7 UNK        -0.1927 
     47 C          27.3431   32.3690    3.9283 C.2       7 UNK         0.5013 
     48 O          27.2038   32.7105    5.1030 O.2       7 UNK        -0.5193 
     49 N          28.4326   31.7626    3.4414 N.am      8 UNK        -0.4253 
     50 CA         29.6425   31.3762    4.1649 C.3       8 UNK         0.0242 
     51 CB         30.3528   32.5926    4.7952 C.3       8 UNK        -0.2000 
     52 C          30.5754   30.6897    3.1604 C.2       8 UNK         0.4948 
     53 O          30.8178   31.2461    2.0862 O.2       8 UNK        -0.5275 
     54 N          31.0812   29.5041    3.5167 N.am      9 UNK        -0.4246 
     55 CA         32.0547   28.7585    2.7172 C.3       9 UNK         0.0261 
     56 CB         31.9563   27.2669    3.0754 C.3       9 UNK        -0.1959 
     57 C          33.4814   29.2903    2.9359 C.2       9 UNK         0.5033 
     58 O          33.7431   29.9891    3.9196 O.2       9 UNK        -0.5390 
     59 N          34.3969   28.9216    2.0304 N.am      10 UNK        -0.4215 
     60 CA         35.8245   29.2547    2.0866 C.3       10 UNK         0.0240 
     61 CB         36.4132   29.1691    0.6654 C.3       10 UNK        -0.1982 
     62 C          36.5753   28.3625    3.0968 C.2       10 UNK         0.4970 
     63 O          37.4544   27.5902    2.7095 O.2       10 UNK        -0.4916 
     64 N          36.1775   28.4593    4.3688 N.am      11 UNK        -0.4279 
     65 CA         36.7045   27.6855    5.5004 C.3       11 UNK         0.1003 
     66 C          38.1924   28.0015    5.8132 C.2       11 UNK         0.5709 
     67 N          38.9476   27.0209    6.2896 N.am      11 UNK        -0.7358 
     68 O          38.6556   29.1320    5.6688 O.2       11 UNK        -0.4999 
     69 C69        35.8258   27.8640    6.7674 C.3       12 UNK        -0.0954 
     70 S70        34.0649   27.5083    6.4543 S.3       12 UNK        -0.2268 
     71 C71        33.9861   25.7290    6.8117 C.3       12 UNK         0.0203 
     72 H72        31.8804   23.7119   -3.5511 H         1 UNK         0.0888 
     73 H73        30.4210   24.0906   -4.4697 H         1 UNK         0.0888 
     74 H74        31.5640   25.3723   -4.0602 H         1 UNK         0.0888 
     75 H75        31.4673   23.4112   -1.3891 H         1 UNK         0.3017 
     76 H76        30.4424   25.1784    0.4023 H         1 UNK         0.0873 
     77 H77        30.1223   23.0807    1.9096 H         1 UNK         0.0745 
     78 H78        30.6342   22.1290    0.5515 H         1 UNK         0.0745 
     79 H79        33.5356   22.2585    3.2273 H         1 UNK         0.0705 
     80 H80        31.8718   21.7664    3.1055 H         1 UNK         0.0705 
     81 H81        34.2156   24.0499    4.6752 H         1 UNK         0.1334 
     82 H82        31.2927   25.9548    7.1681 H         1 UNK         0.1417 
     83 H83        30.0322   23.3388    4.0257 H         1 UNK         0.1562 
     84 H84        28.9342   24.8732    7.0531 H         1 UNK         0.0748 
     85 H85        28.3900   24.2252    5.5278 H         1 UNK         0.0748 
     86 H86        27.1879   25.7013    3.6843 H         1 UNK         0.0940 
     87 H87        28.8553   25.9009    3.2249 H         1 UNK         0.0940 
     88 H88        28.3677   28.4922    3.4517 H         1 UNK         0.0703 
     89 H89        28.0778   26.8039    1.1692 H         1 UNK         0.3081 
     90 H90        28.3554   29.5781   -1.1393 H         1 UNK         0.0719 
     91 H91        30.3833   27.4808   -0.2112 H         1 UNK         0.0809 
     92 H92        30.3803   28.2674   -1.7880 H         1 UNK         0.0809 
     93 H93        30.6455   29.2176   -0.3377 H         1 UNK         0.0809 
     94 H94        28.3811   26.8417   -1.7353 H         1 UNK         0.2990 
     95 H95        24.8568   26.5621   -2.4179 H         1 UNK         0.0690 
     96 H96        27.4193   26.7437   -4.0938 H         1 UNK         0.0788 
     97 H97        25.9909   27.7521   -4.2856 H         1 UNK         0.0788 
     98 H98        25.8929   26.0281   -4.6067 H         1 UNK         0.0788 
     99 H99        27.3981   25.0004   -2.2979 H         1 UNK         0.2993 
    100 H100       26.1497   22.8987    0.2322 H         1 UNK         0.0949 
    101 H101       26.5580   22.0924   -2.7017 H         1 UNK         0.0767 
    102 H102       26.6304   21.0113   -1.3086 H         1 UNK         0.0767 
    103 H103       25.1129   21.7735   -1.7521 H         1 UNK         0.0767 
    104 H104       28.5291   22.6849   -1.2722 H         1 UNK         0.3013 
    105 H105       25.7464   28.3560    1.4130 H         1 UNK         0.3121 
    106 H106       23.6139   28.8838    3.3031 H         1 UNK         0.0774 
    107 H107       22.4330   29.7565    1.3138 H         1 UNK         0.0815 
    108 H108       23.9140   29.7298    0.3701 H         1 UNK         0.0815 
    109 H109       23.1859   28.2191    0.9179 H         1 UNK         0.0815 
    110 H110       26.3182   30.7139    2.0080 H         1 UNK         0.2987 
    111 H111       25.4281   33.1880    3.4472 H         1 UNK         0.0949 
    112 H112       27.3860   32.8577    1.1025 H         1 UNK         0.0806 
    113 H113       25.8150   33.6488    1.0573 H         1 UNK         0.0806 
    114 H114       27.1206   34.3473    2.0012 H         1 UNK         0.0806 
    115 H115       28.4244   31.4572    2.4703 H         1 UNK         0.3010 
    116 H116       29.3627   30.6696    4.9489 H         1 UNK         0.0829 
    117 H117       31.3082   32.3004    5.2337 H         1 UNK         0.0813 
    118 H118       30.5580   33.3654    4.0534 H         1 UNK         0.0813 
    119 H119       29.7621   33.0413    5.5932 H         1 UNK         0.0813 
    120 H120       30.8887   29.1408    4.4388 H         1 UNK         0.3038 
    121 H121       31.8115   28.8737    1.6603 H         1 UNK         0.0769 
    122 H122       32.6782   26.6677    2.5192 H         1 UNK         0.0811 
    123 H123       30.9689   26.8693    2.8459 H         1 UNK         0.0811 
    124 H124       32.1439   27.0982    4.1349 H         1 UNK         0.0811 
    125 H125       34.1117   28.3173    1.2732 H         1 UNK         0.3204 
    126 H126       35.9322   30.2873    2.4262 H         1 UNK         0.0748 
    127 H127       37.4703   29.4388    0.6639 H         1 UNK         0.0771 
    128 H128       36.3325   28.1628    0.2523 H         1 UNK         0.0771 
    129 H129       35.9064   29.8533   -0.0155 H         1 UNK         0.0771 
    130 H130       35.4118   29.0921    4.5771 H         1 UNK         0.2980 
    131 H131       36.6510   26.6358    5.2048 H         1 UNK         0.0545 
    132 H132       38.5765   26.0933    6.4247 H         1 UNK         0.3459 
    133 H133       39.9120   27.2110    6.5133 H         1 UNK         0.3459 
    134 H134       36.1783   27.2250    7.5793 H         1 UNK         0.0616 
    135 H135       35.8954   28.8895    7.1350 H         1 UNK         0.0616 
    136 H136       33.8197   25.5817    7.8797 H         1 UNK         0.0634 
    137 H137       34.9453   25.2641    6.5792 H         1 UNK         0.0634 
@<TRIPOS>BOND
     1    1    2 1    
     2    1   72 1    
     3    1   73 1    
     4    1   74 1    
     5    2    3 2    
     6    2    4 am   BACKBONE|DICT|INTERRES
     7    4    5 1    
     8    4   75 1    
     9    5    6 1    
    10    5   35 1    
    11    5   76 1    
    12    6    7 1    
    13    6   77 1    
    14    6   78 1    
    15    7    8 1    
    16    8    9 1    
    17    8   79 1    
    18    8   80 1    
    19    9   10 ar   
    20    9   14 ar   
    21   10   11 ar   
    22   10   81 1    
    23   11   12 ar   
    24   11   71 1    
    25   12   13 ar   
    26   12   82 1    
    27   13   14 ar   
    28   13   15 1    
    29   14   83 1    
    30   15   16 1    
    31   15   84 1    
    32   15   85 1    
    33   16   17 1    
    34   17   18 1    
    35   17   86 1    
    36   17   87 1    
    37   18   19 1    
    38   18   37 1    
    39   18   88 1    
    40   19   20 am   BACKBONE|DICT|INTERRES
    41   19   89 1    
    42   20   21 2    
    43   20   22 1    
    44   22   23 1    
    45   22   24 1    
    46   22   90 1    
    47   23   91 1    
    48   23   92 1    
    49   23   93 1    
    50   24   25 am   BACKBONE|DICT|INTERRES
    51   24   94 1    
    52   25   26 2    
    53   25   27 1    
    54   27   28 1    
    55   27   29 1    
    56   27   95 1    
    57   28   96 1    
    58   28   97 1    
    59   28   98 1    
    60   29   30 am   BACKBONE|DICT|INTERRES
    61   29   99 1    
    62   30   31 2    
    63   30   32 1    
    64   32   33 1    
    65   32   34 1    
    66   32  100 1    
    67   33  101 1    
    68   33  102 1    
    69   33  103 1    
    70   34   35 am   BACKBONE|DICT|INTERRES
    71   34  104 1    
    72   35   36 2    
    73   37   38 2    
    74   37   39 am   BACKBONE|DICT|INTERRES
    75   39   40 1    
    76   39  105 1    
    77   40   41 1    
    78   40   42 1    
    79   40  106 1    
    80   41  107 1    
    81   41  108 1    
    82   41  109 1    
    83   42   43 2    
    84   42   44 am   BACKBONE|DICT|INTERRES
    85   44   45 1    
    86   44  110 1    
    87   45   46 1    
    88   45   47 1    
    89   45  111 1    
    90   46  112 1    
    91   46  113 1    
    92   46  114 1    
    93   47   48 2    
    94   47   49 am   BACKBONE|DICT|INTERRES
    95   49   50 1    
    96   49  115 1    
    97   50   51 1    
    98   50   52 1    
    99   50  116 1    
   100   51  117 1    
   101   51  118 1    
   102   51  119 1    
   103   52   53 2    
   104   52   54 am   BACKBONE|DICT|INTERRES
   105   54   55 1    
   106   54  120 1    
   107   55   56 1    
   108   55   57 1    
   109   55  121 1    
   110   56  122 1    
   111   56  123 1    
   112   56  124 1    
   113   57   58 2    
   114   57   59 am   BACKBONE|DICT|INTERRES
   115   59   60 1    
   116   59  125 1    
   117   60   61 1    
   118   60   62 1    
   119   60  126 1    
   120   61  127 1    
   121   61  128 1    
   122   61  129 1    
   123   62   63 2    
   124   62   64 am   BACKBONE|DICT|INTERRES
   125   64   65 1    
   126   64  130 1    
   127   65   66 1    
   128   65   69 1    
   129   65  131 1    
   130   66   67 am   BACKBONE|DICT|INTERRES
   131   66   68 2    
   132   67  132 1    
   133   67  133 1    
   134   69   70 1    
   135   69  134 1    
   136   69  135 1    
   137   70   71 1    
   138   71  136 1    
   139   71  137 1    
@<TRIPOS>SUBSTRUCTURE
     1 UNK         1 GROUP             0       ****    0 ROOT    
