@<TRIPOS>MOLECULE
3R136
137   139    1
SMALL
USER_CHARGES


@<TRIPOS>ATOM
      1 CA         27.5687   29.2486    6.0842 C.3       0 UNK        -0.1979 
      2 C          27.3173   27.9947    5.2610 C.2       0 UNK         0.4864 
      3 O          26.3820   27.2451    5.5470 O.2       0 UNK        -0.5359 
      4 N          28.1316   27.7647    4.2249 N.am      1 UNK        -0.4318 
      5 CA         28.0887   26.5863    3.3499 C.3       1 UNK         0.0824 
      6 C6         29.4815   26.2454    2.7649 C.3       12 UNK        -0.0944 
      7 S7         30.7395   25.8880    4.0394 S.3       12 UNK        -0.2672 
      8 C8         31.3790   24.2592    3.5197 C.3       12 UNK         0.0333 
      9 C9         32.4407   24.3847    2.4332 C.ar      12 UNK        -0.0807 
     10 C10        33.7902   24.1605    2.7239 C.ar      12 UNK        -0.0894 
     11 C11        34.7648   24.3013    1.7286 C.ar      12 UNK        -0.0804 
     12 C12        34.3834   24.6772    0.4357 C.ar      12 UNK        -0.0824 
     13 C13        33.0366   24.8954    0.1327 C.ar      12 UNK        -0.0762 
     14 C14        32.0753   24.7253    1.1295 C.ar      12 UNK        -0.0782 
     15 C15        32.5983   25.3162   -1.2617 C.3       12 UNK         0.0230 
     16 S16        31.8330   26.9706   -1.2329 S.3       12 UNK        -0.2608 
     17 C17        31.0068   27.0186   -2.8618 C.3       12 UNK        -0.0989 
     18 CA         29.4563   27.0032   -2.7797 C.3       5 UNK         0.0716 
     19 N          28.9632   25.8167   -2.0699 N.am      5 UNK        -0.4135 
     20 C          27.7390   25.2853   -2.1841 C.2       4 UNK         0.5031 
     21 O          26.8450   25.7782   -2.8732 O.2       4 UNK        -0.5229 
     22 CA         27.4628   23.9768   -1.4247 C.3       4 UNK         0.0329 
     23 CB         28.6631   23.4337   -0.6210 C.3       4 UNK        -0.2001 
     24 N          26.3402   24.1799   -0.5130 N.am      4 UNK        -0.4303 
     25 C          25.2011   23.4742   -0.5135 C.2       3 UNK         0.5044 
     26 O          24.9587   22.5693   -1.3140 O.2       3 UNK        -0.5152 
     27 CA         24.1560   23.7937    0.5753 C.3       3 UNK         0.0319 
     28 CB         24.0518   22.6307    1.5767 C.3       3 UNK        -0.2001 
     29 N          24.4340   25.0251    1.3180 N.am      3 UNK        -0.4354 
     30 C          24.2045   26.2634    0.8616 C.2       2 UNK         0.4964 
     31 O          23.6729   26.5068   -0.2215 O.2       2 UNK        -0.5047 
     32 CA         24.6591   27.4306    1.7562 C.3       2 UNK         0.0288 
     33 CB         23.4887   27.9383    2.6134 C.3       2 UNK        -0.2113 
     34 N          25.7972   27.1262    2.6338 N.am      2 UNK        -0.4145 
     35 C          27.0228   26.7493    2.2412 C.2       1 UNK         0.5006 
     36 O          27.3188   26.5402    1.0603 O.2       1 UNK        -0.5103 
     37 C          28.8897   28.3457   -2.2587 C.2       5 UNK         0.5055 
     38 O          29.1538   29.3741   -2.8844 O.2       5 UNK        -0.5220 
     39 N          28.1351   28.3285   -1.1477 N.am      6 UNK        -0.4450 
     40 CA         27.5261   29.4846   -0.4791 C.3       6 UNK         0.0367 
     41 CB         26.4897   30.1874   -1.3822 C.3       6 UNK        -0.1929 
     42 C          28.5624   30.4421    0.1351 C.2       6 UNK         0.5070 
     43 O          28.3655   31.6587    0.1214 O.2       6 UNK        -0.5237 
     44 N          29.6392   29.8707    0.6934 N.am      7 UNK        -0.4739 
     45 CA         30.6171   30.5804    1.5202 C.3       7 UNK         0.0276 
     46 CB         31.8128   29.6551    1.7993 C.3       7 UNK        -0.1927 
     47 C          29.9723   31.0437    2.8381 C.2       7 UNK         0.5013 
     48 O          29.1992   30.2862    3.4273 O.2       7 UNK        -0.5193 
     49 N          30.3039   32.2643    3.2798 N.am      8 UNK        -0.4253 
     50 CA         29.7206   32.9178    4.4609 C.3       8 UNK         0.0242 
     51 CB         30.0886   34.4110    4.4348 C.3       8 UNK        -0.2000 
     52 C          30.1179   32.2910    5.8122 C.2       8 UNK         0.4948 
     53 O          29.4797   32.5850    6.8238 O.2       8 UNK        -0.5275 
     54 N          31.1532   31.4495    5.8087 N.am      9 UNK        -0.4246 
     55 CA         31.6445   30.6596    6.9299 C.3       9 UNK         0.0261 
     56 CB         32.7378   31.4478    7.6735 C.3       9 UNK        -0.1959 
     57 C          32.1883   29.3466    6.3549 C.2       9 UNK         0.5033 
     58 O          32.3270   29.2374    5.1322 O.2       9 UNK        -0.5390 
     59 N          32.5011   28.3879    7.2375 N.am      10 UNK        -0.4215 
     60 CA         33.0517   27.0674    6.9119 C.3       10 UNK         0.0240 
     61 CB         33.2716   26.2751    8.2127 C.3       10 UNK        -0.1982 
     62 C          34.3459   27.1588    6.0817 C.2       10 UNK         0.4970 
     63 O          35.4102   27.4271    6.6427 O.2       10 UNK        -0.4916 
     64 N          34.2091   26.9723    4.7629 N.am      11 UNK        -0.4279 
     65 CA         35.2611   27.1639    3.7525 C.3       11 UNK         0.1003 
     66 C          35.7157   28.6462    3.5699 C.2       11 UNK         0.5709 
     67 N          34.9090   29.6298    3.9505 N.am      11 UNK        -0.7358 
     68 O          36.7997   28.9189    3.0594 O.2       11 UNK        -0.4999 
     69 C69        36.4348   26.1531    3.9262 C.3       12 UNK        -0.0954 
     70 S70        37.1370   25.6056    2.3338 S.3       12 UNK        -0.2268 
     71 C71        36.2320   24.0521    2.0477 C.3       12 UNK         0.0203 
     72 H72        27.3638   29.0607    7.1377 H         1 UNK         0.0888 
     73 H73        28.6040   29.5776    5.9981 H         1 UNK         0.0888 
     74 H74        26.9225   30.0580    5.7460 H         1 UNK         0.0888 
     75 H75        28.8006   28.4876    3.9689 H         1 UNK         0.3017 
     76 H76        27.7746   25.7271    3.9467 H         1 UNK         0.0873 
     77 H77        29.8489   27.0519    2.1288 H         1 UNK         0.0745 
     78 H78        29.3790   25.3679    2.1299 H         1 UNK         0.0745 
     79 H79        30.5618   23.6233    3.1764 H         1 UNK         0.0705 
     80 H80        31.7978   23.7623    4.3961 H         1 UNK         0.0705 
     81 H81        34.0854   23.8862    3.7275 H         1 UNK         0.1334 
     82 H82        35.1371   24.8021   -0.3300 H         1 UNK         0.1417 
     83 H83        31.0411   24.8907    0.8809 H         1 UNK         0.1562 
     84 H84        31.8877   24.5825   -1.6446 H         1 UNK         0.0748 
     85 H85        33.4426   25.3246   -1.9527 H         1 UNK         0.0748 
     86 H86        31.3458   26.1747   -3.4648 H         1 UNK         0.0940 
     87 H87        31.3561   27.9038   -3.3972 H         1 UNK         0.0940 
     88 H88        29.0928   26.9250   -3.8068 H         1 UNK         0.0703 
     89 H89        29.6295   25.3639   -1.4639 H         1 UNK         0.3081 
     90 H90        27.2103   23.2365   -2.1864 H         1 UNK         0.0719 
     91 H91        28.4158   22.4778   -0.1587 H         1 UNK         0.0809 
     92 H92        29.5306   23.2575   -1.2584 H         1 UNK         0.0809 
     93 H93        28.9543   24.1127    0.1789 H         1 UNK         0.0809 
     94 H94        26.4379   24.9537    0.1355 H         1 UNK         0.2990 
     95 H95        23.1904   23.8995    0.0758 H         1 UNK         0.0690 
     96 H96        23.8003   21.6982    1.0691 H         1 UNK         0.0788 
     97 H97        23.2727   22.8125    2.3174 H         1 UNK         0.0788 
     98 H98        24.9909   22.4690    2.1074 H         1 UNK         0.0788 
     99 H99        24.8617   24.9218    2.2267 H         1 UNK         0.2993 
    100 H100       24.9624   28.2385    1.0891 H         1 UNK         0.0949 
    101 H101       23.1565   27.1850    3.3291 H         1 UNK         0.0767 
    102 H102       23.7649   28.8332    3.1716 H         1 UNK         0.0767 
    103 H103       22.6312   28.1987    1.9910 H         1 UNK         0.0767 
    104 H104       25.6558   27.2531    3.6313 H         1 UNK         0.3013 
    105 H105       27.9759   27.4402   -0.6841 H         1 UNK         0.3121 
    106 H106       26.9789   29.0852    0.3724 H         1 UNK         0.0774 
    107 H107       26.9596   30.6933   -2.2258 H         1 UNK         0.0815 
    108 H108       25.9344   30.9414   -0.8232 H         1 UNK         0.0815 
    109 H109       25.7628   29.4774   -1.7767 H         1 UNK         0.0815 
    110 H110       29.7234   28.8664    0.6525 H         1 UNK         0.2987 
    111 H111       30.9666   31.4516    0.9619 H         1 UNK         0.0949 
    112 H112       32.5895   30.1836    2.3524 H         1 UNK         0.0806 
    113 H113       31.5277   28.7881    2.3968 H         1 UNK         0.0806 
    114 H114       32.2646   29.2934    0.8756 H         1 UNK         0.0806 
    115 H115       30.9589   32.8141    2.7420 H         1 UNK         0.3010 
    116 H116       28.6344   32.8334    4.3823 H         1 UNK         0.0829 
    117 H117       29.7296   34.8938    3.5256 H         1 UNK         0.0813 
    118 H118       29.6396   34.9398    5.2769 H         1 UNK         0.0813 
    119 H119       31.1672   34.5617    4.4943 H         1 UNK         0.0813 
    120 H120       31.5615   31.1824    4.9213 H         1 UNK         0.3038 
    121 H121       30.8208   30.4259    7.6079 H         1 UNK         0.0769 
    122 H122       33.5893   31.6618    7.0259 H         1 UNK         0.0811 
    123 H123       33.1124   30.8929    8.5342 H         1 UNK         0.0811 
    124 H124       32.3552   32.3984    8.0458 H         1 UNK         0.0811 
    125 H125       32.3765   28.5846    8.2199 H         1 UNK         0.3204 
    126 H126       32.3019   26.5335    6.3287 H         1 UNK         0.0748 
    127 H127       33.6861   25.2883    8.0018 H         1 UNK         0.0771 
    128 H128       33.9648   26.7825    8.8851 H         1 UNK         0.0771 
    129 H129       32.3345   26.1228    8.7485 H         1 UNK         0.0771 
    130 H130       33.2781   26.8272    4.3957 H         1 UNK         0.2980 
    131 H131       34.7568   26.9321    2.8145 H         1 UNK         0.0545 
    132 H132       33.9992   29.4235    4.3559 H         1 UNK         0.3459 
    133 H133       35.2051   30.5840    3.8271 H         1 UNK         0.3459 
    134 H134       37.2315   26.5801    4.5377 H         1 UNK         0.0616 
    135 H135       36.1023   25.2660    4.4668 H         1 UNK         0.0616 
    136 H136       36.6994   23.5235    1.2157 H         1 UNK         0.0634 
    137 H137       36.3358   23.4009    2.9170 H         1 UNK         0.0634 
@<TRIPOS>BOND
     1    1    2 1    
     2    1   72 1    
     3    1   73 1    
     4    1   74 1    
     5    2    3 2    
     6    2    4 am   BACKBONE|DICT|INTERRES
     7    4    5 1    
     8    4   75 1    
     9    5    6 1    
    10    5   35 1    
    11    5   76 1    
    12    6    7 1    
    13    6   77 1    
    14    6   78 1    
    15    7    8 1    
    16    8    9 1    
    17    8   79 1    
    18    8   80 1    
    19    9   10 ar   
    20    9   14 ar   
    21   10   11 ar   
    22   10   81 1    
    23   11   12 ar   
    24   11   71 1    
    25   12   13 ar   
    26   12   82 1    
    27   13   14 ar   
    28   13   15 1    
    29   14   83 1    
    30   15   16 1    
    31   15   84 1    
    32   15   85 1    
    33   16   17 1    
    34   17   18 1    
    35   17   86 1    
    36   17   87 1    
    37   18   19 1    
    38   18   37 1    
    39   18   88 1    
    40   19   20 am   BACKBONE|DICT|INTERRES
    41   19   89 1    
    42   20   21 2    
    43   20   22 1    
    44   22   23 1    
    45   22   24 1    
    46   22   90 1    
    47   23   91 1    
    48   23   92 1    
    49   23   93 1    
    50   24   25 am   BACKBONE|DICT|INTERRES
    51   24   94 1    
    52   25   26 2    
    53   25   27 1    
    54   27   28 1    
    55   27   29 1    
    56   27   95 1    
    57   28   96 1    
    58   28   97 1    
    59   28   98 1    
    60   29   30 am   BACKBONE|DICT|INTERRES
    61   29   99 1    
    62   30   31 2    
    63   30   32 1    
    64   32   33 1    
    65   32   34 1    
    66   32  100 1    
    67   33  101 1    
    68   33  102 1    
    69   33  103 1    
    70   34   35 am   BACKBONE|DICT|INTERRES
    71   34  104 1    
    72   35   36 2    
    73   37   38 2    
    74   37   39 am   BACKBONE|DICT|INTERRES
    75   39   40 1    
    76   39  105 1    
    77   40   41 1    
    78   40   42 1    
    79   40  106 1    
    80   41  107 1    
    81   41  108 1    
    82   41  109 1    
    83   42   43 2    
    84   42   44 am   BACKBONE|DICT|INTERRES
    85   44   45 1    
    86   44  110 1    
    87   45   46 1    
    88   45   47 1    
    89   45  111 1    
    90   46  112 1    
    91   46  113 1    
    92   46  114 1    
    93   47   48 2    
    94   47   49 am   BACKBONE|DICT|INTERRES
    95   49   50 1    
    96   49  115 1    
    97   50   51 1    
    98   50   52 1    
    99   50  116 1    
   100   51  117 1    
   101   51  118 1    
   102   51  119 1    
   103   52   53 2    
   104   52   54 am   BACKBONE|DICT|INTERRES
   105   54   55 1    
   106   54  120 1    
   107   55   56 1    
   108   55   57 1    
   109   55  121 1    
   110   56  122 1    
   111   56  123 1    
   112   56  124 1    
   113   57   58 2    
   114   57   59 am   BACKBONE|DICT|INTERRES
   115   59   60 1    
   116   59  125 1    
   117   60   61 1    
   118   60   62 1    
   119   60  126 1    
   120   61  127 1    
   121   61  128 1    
   122   61  129 1    
   123   62   63 2    
   124   62   64 am   BACKBONE|DICT|INTERRES
   125   64   65 1    
   126   64  130 1    
   127   65   66 1    
   128   65   69 1    
   129   65  131 1    
   130   66   67 am   BACKBONE|DICT|INTERRES
   131   66   68 2    
   132   67  132 1    
   133   67  133 1    
   134   69   70 1    
   135   69  134 1    
   136   69  135 1    
   137   70   71 1    
   138   71  136 1    
   139   71  137 1    
@<TRIPOS>SUBSTRUCTURE
     1 UNK         1 GROUP             0       ****    0 ROOT    
