@<TRIPOS>MOLECULE
3R136
137   139    1
SMALL
USER_CHARGES


@<TRIPOS>ATOM
      1 CA         32.6959   25.1898    0.4798 C.3       0 UNK        -0.1979 
      2 C          31.2632   24.6974    0.3523 C.2       0 UNK         0.4864 
      3 O          30.4761   25.3083   -0.3684 O.2       0 UNK        -0.5359 
      4 N          30.9353   23.5840    1.0269 N.am      1 UNK        -0.4318 
      5 CA         29.6004   22.9648    1.1150 C.3       1 UNK         0.0824 
      6 C6         29.6388   21.7133    2.0329 C.3       12 UNK        -0.0944 
      7 S7         28.0645   21.4106    2.9073 S.3       12 UNK        -0.2672 
      8 C8         28.4847   21.8418    4.6278 C.3       12 UNK         0.0333 
      9 C9         28.3850   23.3394    4.8805 C.ar      12 UNK        -0.0807 
     10 C10        29.4650   24.1809    4.5988 C.ar      12 UNK        -0.0894 
     11 C11        29.3702   25.5562    4.8282 C.ar      12 UNK        -0.0804 
     12 C12        28.2048   26.0847    5.3910 C.ar      12 UNK        -0.0824 
     13 C13        27.1020   25.2596    5.6356 C.ar      12 UNK        -0.0762 
     14 C14        27.2028   23.8867    5.3892 C.ar      12 UNK        -0.0782 
     15 C15        25.7839   25.8498    6.1192 C.3       12 UNK         0.0230 
     16 S16        24.6284   26.1353    4.7318 S.3       12 UNK        -0.2608 
     17 C17        25.2766   27.6790    4.0042 C.3       12 UNK        -0.0989 
     18 CA         26.3001   27.4141    2.8711 C.3       5 UNK         0.0716 
     19 N          25.7086   26.8153    1.6734 N.am      5 UNK        -0.4135 
     20 C          26.4100   26.0747    0.8056 C.2       4 UNK         0.5031 
     21 O          27.6064   25.8217    0.9642 O.2       4 UNK        -0.5229 
     22 CA         25.6779   25.5029   -0.4232 C.3       4 UNK         0.0329 
     23 CB         24.4055   26.2821   -0.8284 C.3       4 UNK        -0.2001 
     24 N          26.6052   25.3479   -1.5499 N.am      4 UNK        -0.4303 
     25 C          27.2383   26.3212   -2.2253 C.2       3 UNK         0.5044 
     26 O          26.9939   27.5214   -2.0878 O.2       3 UNK        -0.5152 
     27 CA         28.3381   25.8817   -3.2132 C.3       3 UNK         0.0319 
     28 CB         29.4426   26.9449   -3.3618 C.3       3 UNK        -0.2001 
     29 N          28.9566   24.6231   -2.7908 N.am      3 UNK        -0.4354 
     30 C          28.7078   23.4178   -3.3234 C.2       2 UNK         0.4964 
     31 O          27.9589   23.2392   -4.2842 O.2       2 UNK        -0.5047 
     32 CA         29.3837   22.1940   -2.6725 C.3       2 UNK         0.0288 
     33 CB         30.6112   21.7614   -3.4910 C.3       2 UNK        -0.2113 
     34 N          29.7899   22.4050   -1.2801 N.am      2 UNK        -0.4145 
     35 C          28.9552   22.6360   -0.2547 C.2       1 UNK         0.5006 
     36 O          27.7282   22.6214   -0.3706 O.2       1 UNK        -0.5103 
     37 C          27.1339   28.6616    2.5202 C.2       5 UNK         0.5055 
     38 O          26.7091   29.7871    2.7885 O.2       5 UNK        -0.5220 
     39 N          28.3304   28.4370    1.9614 N.am      6 UNK        -0.4450 
     40 CA         29.3551   29.4374    1.6371 C.3       6 UNK         0.0367 
     41 CB         30.3512   28.8106    0.6448 C.3       6 UNK        -0.1929 
     42 C          30.0617   30.0157    2.8851 C.2       6 UNK         0.5070 
     43 O          31.2887   30.1372    2.9097 O.2       6 UNK        -0.5237 
     44 N          29.2814   30.3595    3.9170 N.am      7 UNK        -0.4739 
     45 CA         29.7515   30.8772    5.2043 C.3       7 UNK         0.0276 
     46 CB         28.5788   30.9182    6.1956 C.3       7 UNK        -0.1927 
     47 C          30.4215   32.2553    5.0886 C.2       7 UNK         0.5013 
     48 O          31.3630   32.5312    5.8307 O.2       7 UNK        -0.5193 
     49 N          29.9783   33.0656    4.1160 N.am      8 UNK        -0.4253 
     50 CA         30.5752   34.3571    3.7578 C.3       8 UNK         0.0242 
     51 CB         29.6738   35.0646    2.7331 C.3       8 UNK        -0.2000 
     52 C          32.0155   34.2441    3.2205 C.2       8 UNK         0.4948 
     53 O          32.7852   35.1942    3.3637 O.2       8 UNK        -0.5275 
     54 N          32.3595   33.0858    2.6395 N.am      9 UNK        -0.4246 
     55 CA         33.7093   32.7380    2.1907 C.3       9 UNK         0.0261 
     56 CB         33.5967   31.9147    0.8948 C.3       9 UNK        -0.1959 
     57 C          34.4994   31.9579    3.2605 C.2       9 UNK         0.5033 
     58 O          35.6437   31.5880    2.9949 O.2       9 UNK        -0.5390 
     59 N          33.8839   31.7029    4.4279 N.am      10 UNK        -0.4215 
     60 CA         34.3590   30.8502    5.5236 C.3       10 UNK         0.0240 
     61 CB         35.6232   31.4404    6.1855 C.3       10 UNK        -0.1982 
     62 C          34.5198   29.3751    5.1032 C.2       10 UNK         0.4970 
     63 O          35.4484   28.7073    5.5630 O.2       10 UNK        -0.4916 
     64 N          33.6051   28.8958    4.2474 N.am      11 UNK        -0.4279 
     65 CA         33.5844   27.5435    3.6730 C.3       11 UNK         0.1003 
     66 C          34.8243   27.2648    2.7697 C.2       11 UNK         0.5709 
     67 N          35.3987   26.0682    2.7925 N.am      11 UNK        -0.7358 
     68 O          35.2334   28.1185    1.9863 O.2       11 UNK        -0.4999 
     69 C69        33.2761   26.4287    4.7219 C.3       12 UNK        -0.0954 
     70 S70        31.7477   26.7111    5.6784 S.3       12 UNK        -0.2268 
     71 C71        30.4933   26.4776    4.3867 C.3       12 UNK         0.0203 
     72 H72        33.2373   24.6716    1.2708 H         1 UNK         0.0888 
     73 H73        33.2292   25.0351   -0.4576 H         1 UNK         0.0888 
     74 H74        32.7071   26.2559    0.7019 H         1 UNK         0.0888 
     75 H75        31.6548   23.1226    1.5645 H         1 UNK         0.3017 
     76 H76        28.9640   23.7153    1.5868 H         1 UNK         0.0873 
     77 H77        30.4249   21.8136    2.7818 H         1 UNK         0.0745 
     78 H78        29.9038   20.8162    1.4693 H         1 UNK         0.0745 
     79 H79        29.4817   21.4771    4.8792 H         1 UNK         0.0705 
     80 H80        27.8000   21.3113    5.2914 H         1 UNK         0.0705 
     81 H81        30.3717   23.7711    4.1768 H         1 UNK         0.1334 
     82 H82        28.1303   27.1491    5.5675 H         1 UNK         0.1417 
     83 H83        26.3517   23.2460    5.5771 H         1 UNK         0.1562 
     84 H84        25.9504   26.7781    6.6679 H         1 UNK         0.0748 
     85 H85        25.3173   25.1624    6.8265 H         1 UNK         0.0748 
     86 H86        25.7240   28.2714    4.8049 H         1 UNK         0.0940 
     87 H87        24.4391   28.2714    3.6315 H         1 UNK         0.0940 
     88 H88        27.0109   26.6871    3.2536 H         1 UNK         0.0703 
     89 H89        24.7337   27.0061    1.4963 H         1 UNK         0.3081 
     90 H90        25.3745   24.4917   -0.1481 H         1 UNK         0.0719 
     91 H91        24.6038   27.3437   -0.9803 H         1 UNK         0.0809 
     92 H92        23.9835   25.8894   -1.7536 H         1 UNK         0.0809 
     93 H93        23.6293   26.1966   -0.0674 H         1 UNK         0.0809 
     94 H94        26.9393   24.4031   -1.6879 H         1 UNK         0.2990 
     95 H95        27.8580   25.7611   -4.1863 H         1 UNK         0.0690 
     96 H96        30.2103   26.6222   -4.0652 H         1 UNK         0.0788 
     97 H97        29.9289   27.1523   -2.4079 H         1 UNK         0.0788 
     98 H98        29.0381   27.8861   -3.7361 H         1 UNK         0.0788 
     99 H99        29.5476   24.6907   -1.9643 H         1 UNK         0.2993 
    100 H100       28.6561   21.3796   -2.6857 H         1 UNK         0.0949 
    101 H101       31.0507   20.8456   -3.0949 H         1 UNK         0.0767 
    102 H102       30.3389   21.5646   -4.5291 H         1 UNK         0.0767 
    103 H103       31.3838   22.5316   -3.4972 H         1 UNK         0.0767 
    104 H104       30.7821   22.4427   -1.0984 H         1 UNK         0.3013 
    105 H105       28.5390   27.4746    1.7093 H         1 UNK         0.3121 
    106 H106       28.8643   30.2738    1.1358 H         1 UNK         0.0774 
    107 H107       31.0868   29.5417    0.3076 H         1 UNK         0.0815 
    108 H108       30.8959   27.9802    1.0947 H         1 UNK         0.0815 
    109 H109       29.8423   28.4320   -0.2421 H         1 UNK         0.0815 
    110 H110       28.2774   30.2618    3.7910 H         1 UNK         0.2987 
    111 H111       30.5013   30.1815    5.5887 H         1 UNK         0.0949 
    112 H112       27.7794   31.5750    5.8502 H         1 UNK         0.0806 
    113 H113       28.1549   29.9255    6.3490 H         1 UNK         0.0806 
    114 H114       28.9045   31.2840    7.1705 H         1 UNK         0.0806 
    115 H115       29.1982   32.7506    3.5572 H         1 UNK         0.3010 
    116 H116       30.6128   34.9679    4.6626 H         1 UNK         0.0829 
    117 H117       28.6722   35.2290    3.1310 H         1 UNK         0.0813 
    118 H118       30.0785   36.0423    2.4674 H         1 UNK         0.0813 
    119 H119       29.5802   34.4896    1.8109 H         1 UNK         0.0813 
    120 H120       31.6736   32.3432    2.5854 H         1 UNK         0.3038 
    121 H121       34.2719   33.6470    1.9680 H         1 UNK         0.0769 
    122 H122       34.5831   31.6984    0.4822 H         1 UNK         0.0811 
    123 H123       33.0374   32.4516    0.1286 H         1 UNK         0.0811 
    124 H124       33.1023   30.9578    1.0658 H         1 UNK         0.0811 
    125 H125       32.9582   32.0906    4.5713 H         1 UNK         0.3204 
    126 H126       33.5672   30.8582    6.2740 H         1 UNK         0.0748 
    127 H127       35.8850   30.8878    7.0887 H         1 UNK         0.0771 
    128 H128       36.4866   31.4015    5.5208 H         1 UNK         0.0771 
    129 H129       35.4694   32.4796    6.4765 H         1 UNK         0.0771 
    130 H130       32.8903   29.5193    3.8855 H         1 UNK         0.2980 
    131 H131       32.7519   27.5601    2.9702 H         1 UNK         0.0545 
    132 H132       35.0902   25.3523    3.4300 H         1 UNK         0.3459 
    133 H133       36.1864   25.8955    2.1881 H         1 UNK         0.3459 
    134 H134       33.1797   25.4567    4.2354 H         1 UNK         0.0616 
    135 H135       34.1005   26.3337    5.4302 H         1 UNK         0.0616 
    136 H136       30.0901   27.4530    4.1202 H         1 UNK         0.0634 
    137 H137       30.9439   26.0802    3.4762 H         1 UNK         0.0634 
@<TRIPOS>BOND
     1    1    2 1    
     2    1   72 1    
     3    1   73 1    
     4    1   74 1    
     5    2    3 2    
     6    2    4 am   BACKBONE|DICT|INTERRES
     7    4    5 1    
     8    4   75 1    
     9    5    6 1    
    10    5   35 1    
    11    5   76 1    
    12    6    7 1    
    13    6   77 1    
    14    6   78 1    
    15    7    8 1    
    16    8    9 1    
    17    8   79 1    
    18    8   80 1    
    19    9   10 ar   
    20    9   14 ar   
    21   10   11 ar   
    22   10   81 1    
    23   11   12 ar   
    24   11   71 1    
    25   12   13 ar   
    26   12   82 1    
    27   13   14 ar   
    28   13   15 1    
    29   14   83 1    
    30   15   16 1    
    31   15   84 1    
    32   15   85 1    
    33   16   17 1    
    34   17   18 1    
    35   17   86 1    
    36   17   87 1    
    37   18   19 1    
    38   18   37 1    
    39   18   88 1    
    40   19   20 am   BACKBONE|DICT|INTERRES
    41   19   89 1    
    42   20   21 2    
    43   20   22 1    
    44   22   23 1    
    45   22   24 1    
    46   22   90 1    
    47   23   91 1    
    48   23   92 1    
    49   23   93 1    
    50   24   25 am   BACKBONE|DICT|INTERRES
    51   24   94 1    
    52   25   26 2    
    53   25   27 1    
    54   27   28 1    
    55   27   29 1    
    56   27   95 1    
    57   28   96 1    
    58   28   97 1    
    59   28   98 1    
    60   29   30 am   BACKBONE|DICT|INTERRES
    61   29   99 1    
    62   30   31 2    
    63   30   32 1    
    64   32   33 1    
    65   32   34 1    
    66   32  100 1    
    67   33  101 1    
    68   33  102 1    
    69   33  103 1    
    70   34   35 am   BACKBONE|DICT|INTERRES
    71   34  104 1    
    72   35   36 2    
    73   37   38 2    
    74   37   39 am   BACKBONE|DICT|INTERRES
    75   39   40 1    
    76   39  105 1    
    77   40   41 1    
    78   40   42 1    
    79   40  106 1    
    80   41  107 1    
    81   41  108 1    
    82   41  109 1    
    83   42   43 2    
    84   42   44 am   BACKBONE|DICT|INTERRES
    85   44   45 1    
    86   44  110 1    
    87   45   46 1    
    88   45   47 1    
    89   45  111 1    
    90   46  112 1    
    91   46  113 1    
    92   46  114 1    
    93   47   48 2    
    94   47   49 am   BACKBONE|DICT|INTERRES
    95   49   50 1    
    96   49  115 1    
    97   50   51 1    
    98   50   52 1    
    99   50  116 1    
   100   51  117 1    
   101   51  118 1    
   102   51  119 1    
   103   52   53 2    
   104   52   54 am   BACKBONE|DICT|INTERRES
   105   54   55 1    
   106   54  120 1    
   107   55   56 1    
   108   55   57 1    
   109   55  121 1    
   110   56  122 1    
   111   56  123 1    
   112   56  124 1    
   113   57   58 2    
   114   57   59 am   BACKBONE|DICT|INTERRES
   115   59   60 1    
   116   59  125 1    
   117   60   61 1    
   118   60   62 1    
   119   60  126 1    
   120   61  127 1    
   121   61  128 1    
   122   61  129 1    
   123   62   63 2    
   124   62   64 am   BACKBONE|DICT|INTERRES
   125   64   65 1    
   126   64  130 1    
   127   65   66 1    
   128   65   69 1    
   129   65  131 1    
   130   66   67 am   BACKBONE|DICT|INTERRES
   131   66   68 2    
   132   67  132 1    
   133   67  133 1    
   134   69   70 1    
   135   69  134 1    
   136   69  135 1    
   137   70   71 1    
   138   71  136 1    
   139   71  137 1    
@<TRIPOS>SUBSTRUCTURE
     1 UNK         1 GROUP             0       ****    0 ROOT    
