@<TRIPOS>MOLECULE
3R136
137   139    1
SMALL
USER_CHARGES


@<TRIPOS>ATOM
      1 CA         26.3087   22.8377    6.2690 C.3       0 UNK        -0.1979 
      2 C          26.8866   22.7937    4.8625 C.2       0 UNK         0.4864 
      3 O          27.1492   21.7084    4.3401 O.2       0 UNK        -0.5359 
      4 N          27.0874   23.9631    4.2409 N.am      1 UNK        -0.4318 
      5 CA         27.6348   24.1185    2.8891 C.3       1 UNK         0.0824 
      6 C6         28.2886   25.5099    2.6790 C.3       12 UNK        -0.0944 
      7 S7         29.6483   25.8051    3.8600 S.3       12 UNK        -0.2672 
      8 C8         31.0777   25.1352    2.9534 C.3       12 UNK         0.0333 
      9 C9         31.6718   26.1573    1.9966 C.ar      12 UNK        -0.0807 
     10 C10        32.5275   27.1447    2.4874 C.ar      12 UNK        -0.0894 
     11 C11        33.1109   28.0805    1.6307 C.ar      12 UNK        -0.0804 
     12 C12        32.8120   28.0354    0.2656 C.ar      12 UNK        -0.0824 
     13 C13        31.9494   27.0571   -0.2424 C.ar      12 UNK        -0.0762 
     14 C14        31.3927   26.1115    0.6275 C.ar      12 UNK        -0.0782 
     15 C15        31.6369   27.0199   -1.7349 C.3       12 UNK         0.0230 
     16 S16        29.8493   27.0094   -2.0935 S.3       12 UNK        -0.2608 
     17 C17        29.2878   28.5117   -1.2244 C.3       12 UNK        -0.0989 
     18 CA         27.8663   28.9503   -1.6586 C.3       5 UNK         0.0716 
     19 N          26.8903   27.8759   -1.4672 N.am      5 UNK        -0.4135 
     20 C          25.6431   27.8614   -1.9515 C.2       4 UNK         0.5031 
     21 O          25.1792   28.7381   -2.6844 O.2       4 UNK        -0.5229 
     22 CA         24.7815   26.6545   -1.5361 C.3       4 UNK         0.0329 
     23 CB         23.4512   26.5540   -2.3137 C.3       4 UNK        -0.2001 
     24 N          25.5224   25.3875   -1.5807 N.am      4 UNK        -0.4303 
     25 C          26.0346   24.7753   -2.6627 C.2       3 UNK         0.5044 
     26 O          25.9583   25.2256   -3.8064 O.2       3 UNK        -0.5152 
     27 CA         26.7567   23.4258   -2.4495 C.3       3 UNK         0.0319 
     28 CB         28.2745   23.5896   -2.6340 C.3       3 UNK        -0.2001 
     29 N          26.5092   22.8128   -1.1418 N.am      3 UNK        -0.4354 
     30 C          25.3303   22.3405   -0.7123 C.2       2 UNK         0.4964 
     31 O          24.3352   22.2378   -1.4300 O.2       2 UNK        -0.5047 
     32 CA         25.2254   21.9490    0.7754 C.3       2 UNK         0.0288 
     33 CB         25.2234   20.4189    0.9276 C.3       2 UNK        -0.2113 
     34 N          26.2592   22.5113    1.6573 N.am      2 UNK        -0.4145 
     35 C          26.5476   23.8091    1.8393 C.2       1 UNK         0.5006 
     36 O          25.9941   24.7259    1.2276 O.2       1 UNK        -0.5103 
     37 C          27.4452   30.2099   -0.8765 C.2       5 UNK         0.5055 
     38 O          26.8199   30.0969    0.1812 O.2       5 UNK        -0.5220 
     39 N          27.8568   31.3874   -1.3632 N.am      6 UNK        -0.4450 
     40 CA         27.6886   32.6775   -0.6839 C.3       6 UNK         0.0367 
     41 CB         27.6344   33.7968   -1.7410 C.3       6 UNK        -0.1929 
     42 C          28.7993   32.9008    0.3644 C.2       6 UNK         0.5070 
     43 O          29.4948   33.9172    0.3253 O.2       6 UNK        -0.5237 
     44 N          28.9704   31.9255    1.2618 N.am      7 UNK        -0.4739 
     45 CA         30.0029   31.8493    2.2917 C.3       7 UNK         0.0276 
     46 CB         31.3689   31.5366    1.6463 C.3       7 UNK        -0.1927 
     47 C          29.5935   30.7807    3.3198 C.2       7 UNK         0.5013 
     48 O          28.4986   30.2206    3.2169 O.2       7 UNK        -0.5193 
     49 N          30.4709   30.5175    4.2930 N.am      8 UNK        -0.4253 
     50 CA         30.2981   29.5049    5.3317 C.3       8 UNK         0.0242 
     51 CB         29.7362   30.1679    6.6022 C.3       8 UNK        -0.2000 
     52 C          31.6502   28.8407    5.6099 C.2       8 UNK         0.4948 
     53 O          32.6900   29.3963    5.2473 O.2       8 UNK        -0.5275 
     54 N          31.6137   27.6841    6.2880 N.am      9 UNK        -0.4246 
     55 CA         32.7507   26.8051    6.6106 C.3       9 UNK         0.0261 
     56 CB         32.2271   25.5872    7.3891 C.3       9 UNK        -0.1959 
     57 C          33.9338   27.4561    7.3575 C.2       9 UNK         0.5033 
     58 O          35.0164   26.8681    7.3951 O.2       9 UNK        -0.5390 
     59 N          33.7334   28.6673    7.8944 N.am      10 UNK        -0.4215 
     60 CA         34.7539   29.5439    8.4735 C.3       10 UNK         0.0240 
     61 CB         34.0725   30.8178    9.0001 C.3       10 UNK        -0.1982 
     62 C          35.9091   29.9076    7.5165 C.2       10 UNK         0.4970 
     63 O          36.9674   30.3068    8.0047 O.2       10 UNK        -0.4916 
     64 N          35.7169   29.7490    6.1963 N.am      11 UNK        -0.4279 
     65 CA         36.7957   29.8247    5.1964 C.3       11 UNK         0.1003 
     66 C          37.8889   28.7175    5.3201 C.2       11 UNK         0.5709 
     67 N          37.6519   27.6180    6.0290 N.am      11 UNK        -0.7358 
     68 O          38.9777   28.8694    4.7706 O.2       11 UNK        -0.4999 
     69 C69        36.2502   29.9480    3.7468 C.3       12 UNK        -0.0954 
     70 S70        35.4356   28.4388    3.1142 S.3       12 UNK        -0.2268 
     71 C71        34.0398   29.1511    2.1890 C.3       12 UNK         0.0203 
     72 H72        26.9946   22.3636    6.9706 H         1 UNK         0.0888 
     73 H73        25.3613   22.3005    6.3019 H         1 UNK         0.0888 
     74 H74        26.1320   23.8592    6.6054 H         1 UNK         0.0888 
     75 H75        26.8480   24.8240    4.7117 H         1 UNK         0.3017 
     76 H76        28.4231   23.3745    2.7534 H         1 UNK         0.0873 
     77 H77        28.6690   25.6134    1.6615 H         1 UNK         0.0745 
     78 H78        27.5523   26.3057    2.8074 H         1 UNK         0.0745 
     79 H79        31.8375   24.8375    3.6779 H         1 UNK         0.0705 
     80 H80        30.7930   24.2247    2.4242 H         1 UNK         0.0705 
     81 H81        32.7525   27.1814    3.5420 H         1 UNK         0.1334 
     82 H82        33.2516   28.7638   -0.4022 H         1 UNK         0.1417 
     83 H83        30.7362   25.3466    0.2361 H         1 UNK         0.1562 
     84 H84        32.0873   26.1255   -2.1671 H         1 UNK         0.0748 
     85 H85        32.0885   27.8702   -2.2484 H         1 UNK         0.0748 
     86 H86        30.0093   29.3089   -1.4150 H         1 UNK         0.0940 
     87 H87        29.3221   28.3198   -0.1492 H         1 UNK         0.0940 
     88 H88        27.8851   29.1964   -2.7226 H         1 UNK         0.0703 
     89 H89        27.1813   27.1164   -0.8713 H         1 UNK         0.3081 
     90 H90        24.5307   26.8152   -0.4863 H         1 UNK         0.0719 
     91 H91        23.6133   26.4557   -3.3874 H         1 UNK         0.0809 
     92 H92        22.8628   25.6981   -1.9830 H         1 UNK         0.0809 
     93 H93        22.8417   27.4452   -2.1592 H         1 UNK         0.0809 
     94 H94        25.6712   24.9531   -0.6736 H         1 UNK         0.2990 
     95 H95        26.3897   22.7413   -3.2170 H         1 UNK         0.0690 
     96 H96        28.7833   22.6258   -2.6125 H         1 UNK         0.0788 
     97 H97        28.7091   24.2163   -1.8547 H         1 UNK         0.0788 
     98 H98        28.5071   24.0551   -3.5930 H         1 UNK         0.0788 
     99 H99        27.2733   22.8344   -0.4834 H         1 UNK         0.2993 
    100 H100       24.2648   22.3290    1.1296 H         1 UNK         0.0949 
    101 H101       24.4420   19.9642    0.3166 H         1 UNK         0.0767 
    102 H102       26.1745   19.9829    0.6192 H         1 UNK         0.0767 
    103 H103       25.0369   20.1228    1.9603 H         1 UNK         0.0767 
    104 H104       26.7219   21.8546    2.2773 H         1 UNK         0.3013 
    105 H105       28.3994   31.4001   -2.2155 H         1 UNK         0.3121 
    106 H106       26.7361   32.6827   -0.1492 H         1 UNK         0.0774 
    107 H107       28.5641   33.8649   -2.3071 H         1 UNK         0.0815 
    108 H108       27.4653   34.7677   -1.2732 H         1 UNK         0.0815 
    109 H109       26.8208   33.6353   -2.4484 H         1 UNK         0.0815 
    110 H110       28.3108   31.1507    1.2758 H         1 UNK         0.2987 
    111 H111       30.0522   32.8108    2.8071 H         1 UNK         0.0949 
    112 H112       31.3932   30.5289    1.2299 H         1 UNK         0.0806 
    113 H113       31.6086   32.2328    0.8428 H         1 UNK         0.0806 
    114 H114       32.1735   31.6205    2.3756 H         1 UNK         0.0806 
    115 H115       31.3876   30.9462    4.2803 H         1 UNK         0.3010 
    116 H116       29.6098   28.7303    4.9857 H         1 UNK         0.0829 
    117 H117       28.7729   30.6394    6.4068 H         1 UNK         0.0813 
    118 H118       29.5801   29.4370    7.3965 H         1 UNK         0.0813 
    119 H119       30.4098   30.9342    6.9885 H         1 UNK         0.0813 
    120 H120       30.7057   27.3264    6.5491 H         1 UNK         0.3038 
    121 H121       33.1544   26.4450    5.6634 H         1 UNK         0.0769 
    122 H122       31.7717   25.8798    8.3359 H         1 UNK         0.0811 
    123 H123       33.0347   24.8900    7.6176 H         1 UNK         0.0811 
    124 H124       31.4835   25.0367    6.8120 H         1 UNK         0.0811 
    125 H125       32.8150   29.0693    7.7794 H         1 UNK         0.3204 
    126 H126       35.1949   29.0131    9.3195 H         1 UNK         0.0748 
    127 H127       34.7976   31.4846    9.4693 H         1 UNK         0.0771 
    128 H128       33.5878   31.3759    8.1978 H         1 UNK         0.0771 
    129 H129       33.3182   30.5842    9.7519 H         1 UNK         0.0771 
    130 H130       34.8100   29.4480    5.8584 H         1 UNK         0.2980 
    131 H131       37.3200   30.7605    5.3990 H         1 UNK         0.0545 
    132 H132       38.3706   26.9161    6.1021 H         1 UNK         0.3459 
    133 H133       36.7534   27.4678    6.4745 H         1 UNK         0.3459 
    134 H134       35.5511   30.7840    3.6954 H         1 UNK         0.0616 
    135 H135       37.0611   30.2018    3.0619 H         1 UNK         0.0616 
    136 H136       33.4701   29.7993    2.8511 H         1 UNK         0.0634 
    137 H137       34.4312   29.7833    1.3906 H         1 UNK         0.0634 
@<TRIPOS>BOND
     1    1    2 1    
     2    1   72 1    
     3    1   73 1    
     4    1   74 1    
     5    2    3 2    
     6    2    4 am   BACKBONE|DICT|INTERRES
     7    4    5 1    
     8    4   75 1    
     9    5    6 1    
    10    5   35 1    
    11    5   76 1    
    12    6    7 1    
    13    6   77 1    
    14    6   78 1    
    15    7    8 1    
    16    8    9 1    
    17    8   79 1    
    18    8   80 1    
    19    9   10 ar   
    20    9   14 ar   
    21   10   11 ar   
    22   10   81 1    
    23   11   12 ar   
    24   11   71 1    
    25   12   13 ar   
    26   12   82 1    
    27   13   14 ar   
    28   13   15 1    
    29   14   83 1    
    30   15   16 1    
    31   15   84 1    
    32   15   85 1    
    33   16   17 1    
    34   17   18 1    
    35   17   86 1    
    36   17   87 1    
    37   18   19 1    
    38   18   37 1    
    39   18   88 1    
    40   19   20 am   BACKBONE|DICT|INTERRES
    41   19   89 1    
    42   20   21 2    
    43   20   22 1    
    44   22   23 1    
    45   22   24 1    
    46   22   90 1    
    47   23   91 1    
    48   23   92 1    
    49   23   93 1    
    50   24   25 am   BACKBONE|DICT|INTERRES
    51   24   94 1    
    52   25   26 2    
    53   25   27 1    
    54   27   28 1    
    55   27   29 1    
    56   27   95 1    
    57   28   96 1    
    58   28   97 1    
    59   28   98 1    
    60   29   30 am   BACKBONE|DICT|INTERRES
    61   29   99 1    
    62   30   31 2    
    63   30   32 1    
    64   32   33 1    
    65   32   34 1    
    66   32  100 1    
    67   33  101 1    
    68   33  102 1    
    69   33  103 1    
    70   34   35 am   BACKBONE|DICT|INTERRES
    71   34  104 1    
    72   35   36 2    
    73   37   38 2    
    74   37   39 am   BACKBONE|DICT|INTERRES
    75   39   40 1    
    76   39  105 1    
    77   40   41 1    
    78   40   42 1    
    79   40  106 1    
    80   41  107 1    
    81   41  108 1    
    82   41  109 1    
    83   42   43 2    
    84   42   44 am   BACKBONE|DICT|INTERRES
    85   44   45 1    
    86   44  110 1    
    87   45   46 1    
    88   45   47 1    
    89   45  111 1    
    90   46  112 1    
    91   46  113 1    
    92   46  114 1    
    93   47   48 2    
    94   47   49 am   BACKBONE|DICT|INTERRES
    95   49   50 1    
    96   49  115 1    
    97   50   51 1    
    98   50   52 1    
    99   50  116 1    
   100   51  117 1    
   101   51  118 1    
   102   51  119 1    
   103   52   53 2    
   104   52   54 am   BACKBONE|DICT|INTERRES
   105   54   55 1    
   106   54  120 1    
   107   55   56 1    
   108   55   57 1    
   109   55  121 1    
   110   56  122 1    
   111   56  123 1    
   112   56  124 1    
   113   57   58 2    
   114   57   59 am   BACKBONE|DICT|INTERRES
   115   59   60 1    
   116   59  125 1    
   117   60   61 1    
   118   60   62 1    
   119   60  126 1    
   120   61  127 1    
   121   61  128 1    
   122   61  129 1    
   123   62   63 2    
   124   62   64 am   BACKBONE|DICT|INTERRES
   125   64   65 1    
   126   64  130 1    
   127   65   66 1    
   128   65   69 1    
   129   65  131 1    
   130   66   67 am   BACKBONE|DICT|INTERRES
   131   66   68 2    
   132   67  132 1    
   133   67  133 1    
   134   69   70 1    
   135   69  134 1    
   136   69  135 1    
   137   70   71 1    
   138   71  136 1    
   139   71  137 1    
@<TRIPOS>SUBSTRUCTURE
     1 UNK         1 GROUP             0       ****    0 ROOT    
