@<TRIPOS>MOLECULE
3R136
137   139    1
SMALL
USER_CHARGES


@<TRIPOS>ATOM
      1 CA         25.4692   23.4579    1.1501 C.3       0 UNK        -0.1979 
      2 C          26.2305   22.3533    0.4349 C.2       0 UNK         0.4864 
      3 O          25.6987   21.2539    0.2698 O.2       0 UNK        -0.5359 
      4 N          27.4614   22.6454    0.0051 N.am      1 UNK        -0.4318 
      5 CA         28.3005   21.7788   -0.8221 C.3       1 UNK         0.0824 
      6 C6         29.5771   21.3098   -0.0652 C.3       12 UNK        -0.0944 
      7 S7         30.7146   22.6445    0.4676 S.3       12 UNK        -0.2672 
      8 C8         31.3527   22.0010    2.0448 C.3       12 UNK         0.0333 
      9 C9         30.8470   22.8160    3.2248 C.ar      12 UNK        -0.0807 
     10 C10        31.6734   23.7744    3.8179 C.ar      12 UNK        -0.0894 
     11 C11        31.2340   24.5077    4.9238 C.ar      12 UNK        -0.0804 
     12 C12        29.9560   24.2745    5.4395 C.ar      12 UNK        -0.0824 
     13 C13        29.1108   23.3370    4.8384 C.ar      12 UNK        -0.0762 
     14 C14        29.5626   22.6064    3.7342 C.ar      12 UNK        -0.0782 
     15 C15        27.7071   23.1121    5.3748 C.3       12 UNK         0.0230 
     16 S16        26.4946   24.1384    4.4886 S.3       12 UNK        -0.2608 
     17 C17        26.6324   25.7477    5.3384 C.3       12 UNK        -0.0989 
     18 CA         27.4663   26.8077    4.5697 C.3       5 UNK         0.0716 
     19 N          27.0276   26.9667    3.1780 N.am      5 UNK        -0.4135 
     20 C          27.5500   27.8063    2.2729 C.2       4 UNK         0.5031 
     21 O          28.4220   28.6446    2.5153 O.2       4 UNK        -0.5229 
     22 CA         27.0087   27.6987    0.8397 C.3       4 UNK         0.0329 
     23 CB         26.1853   28.9411    0.4661 C.3       4 UNK        -0.2001 
     24 N          28.1285   27.5660   -0.0912 N.am      4 UNK        -0.4303 
     25 C          28.7747   26.4185   -0.3235 C.2       3 UNK         0.5044 
     26 O          28.4203   25.3269    0.1312 O.2       3 UNK        -0.5152 
     27 CA         30.0429   26.5142   -1.1833 C.3       3 UNK         0.0319 
     28 CB         31.2627   26.7955   -0.2915 C.3       3 UNK        -0.2001 
     29 N          30.2510   25.2387   -1.8592 N.am      3 UNK        -0.4354 
     30 C          30.1778   25.0184   -3.1786 C.2       2 UNK         0.4964 
     31 O          30.0512   25.9084   -4.0202 O.2       2 UNK        -0.5047 
     32 CA         30.2396   23.5469   -3.6403 C.3       2 UNK         0.0288 
     33 CB         31.6653   23.1776   -4.0813 C.3       2 UNK        -0.2113 
     34 N          29.8035   22.6176   -2.5931 N.am      2 UNK        -0.4145 
     35 C          28.5401   22.5148   -2.1572 C.2       1 UNK         0.5006 
     36 O          27.5812   23.0118   -2.7543 O.2       1 UNK        -0.5103 
     37 C          27.4370   28.1474    5.3307 C.2       5 UNK         0.5055 
     38 O          26.3496   28.6782    5.5652 O.2       5 UNK        -0.5220 
     39 N          28.6212   28.6844    5.6574 N.am      6 UNK        -0.4450 
     40 CA         28.9023   29.9570    6.3428 C.3       6 UNK         0.0367 
     41 CB         28.3155   29.9606    7.7679 C.3       6 UNK        -0.1929 
     42 C          28.4975   31.2351    5.5771 C.2       6 UNK         0.5070 
     43 O          29.1000   32.2827    5.8130 O.2       6 UNK        -0.5237 
     44 N          27.5030   31.1473    4.6844 N.am      7 UNK        -0.4739 
     45 CA         27.0439   32.2261    3.8081 C.3       7 UNK         0.0276 
     46 CB         25.7193   31.8192    3.1464 C.3       7 UNK        -0.1927 
     47 C          28.0923   32.6192    2.7548 C.2       7 UNK         0.5013 
     48 O          28.2152   33.8053    2.4451 O.2       7 UNK        -0.5193 
     49 N          28.8562   31.6363    2.2563 N.am      8 UNK        -0.4253 
     50 CA         30.0944   31.8741    1.5192 C.3       8 UNK         0.0242 
     51 CB         30.4165   30.6504    0.6463 C.3       8 UNK        -0.2000 
     52 C          31.2033   32.1265    2.5486 C.2       8 UNK         0.4948 
     53 O          31.4954   31.2268    3.3367 O.2       8 UNK        -0.5275 
     54 N          31.7884   33.3321    2.5381 N.am      9 UNK        -0.4246 
     55 CA         32.7409   33.8128    3.5497 C.3       9 UNK         0.0261 
     56 CB         33.1153   35.2727    3.2457 C.3       9 UNK        -0.1959 
     57 C          34.0093   32.9542    3.7100 C.2       9 UNK         0.5033 
     58 O          34.5173   32.8316    4.8256 O.2       9 UNK        -0.5390 
     59 N          34.4872   32.3683    2.6043 N.am      10 UNK        -0.4215 
     60 CA         35.6132   31.4307    2.5886 C.3       10 UNK         0.0240 
     61 CB         36.2379   31.4246    1.1832 C.3       10 UNK        -0.1982 
     62 C          35.2175   30.0001    3.0025 C.2       10 UNK         0.4970 
     63 O          36.0984   29.2288    3.3837 O.2       10 UNK        -0.4916 
     64 N          33.9224   29.6670    2.8981 N.am      11 UNK        -0.4279 
     65 CA         33.3294   28.3438    3.1476 C.3       11 UNK         0.1003 
     66 C          33.9335   27.1885    2.2888 C.2       11 UNK         0.5709 
     67 N          34.3810   27.4618    1.0682 N.am      11 UNK        -0.7358 
     68 O          34.0011   26.0396    2.7147 O.2       11 UNK        -0.4999 
     69 C69        33.2131   28.0347    4.6698 C.3       12 UNK        -0.0954 
     70 S70        31.6261   27.2309    5.0820 S.3       12 UNK        -0.2268 
     71 C71        32.1399   25.5513    5.5583 C.3       12 UNK         0.0203 
     72 H72        24.6715   23.8374    0.5126 H         1 UNK         0.0888 
     73 H73        25.0213   23.0743    2.0662 H         1 UNK         0.0888 
     74 H74        26.1228   24.2893    1.4126 H         1 UNK         0.0888 
     75 H75        27.8256   23.5895    0.1361 H         1 UNK         0.3017 
     76 H76        27.7456   20.8792   -1.0961 H         1 UNK         0.0873 
     77 H77        30.1384   20.5953   -0.6700 H         1 UNK         0.0745 
     78 H78        29.2587   20.7491    0.8147 H         1 UNK         0.0745 
     79 H79        31.0881   20.9512    2.1761 H         1 UNK         0.0705 
     80 H80        32.4428   22.0285    2.0095 H         1 UNK         0.0705 
     81 H81        32.6630   23.9476    3.4186 H         1 UNK         0.1334 
     82 H82        29.6132   24.8401    6.2951 H         1 UNK         0.1417 
     83 H83        28.9128   21.8795    3.2658 H         1 UNK         0.1562 
     84 H84        27.6617   23.3087    6.4469 H         1 UNK         0.0748 
     85 H85        27.4325   22.0635    5.2501 H         1 UNK         0.0748 
     86 H86        27.0431   25.5943    6.3380 H         1 UNK         0.0940 
     87 H87        25.6128   26.1073    5.4931 H         1 UNK         0.0940 
     88 H88        28.4993   26.4598    4.5255 H         1 UNK         0.0703 
     89 H89        26.3063   26.3249    2.8857 H         1 UNK         0.3081 
     90 H90        26.3637   26.8213    0.7545 H         1 UNK         0.0719 
     91 H91        26.7732   29.8568    0.5448 H         1 UNK         0.0809 
     92 H92        25.8082   28.8734   -0.5545 H         1 UNK         0.0809 
     93 H93        25.3201   29.0446    1.1218 H         1 UNK         0.0809 
     94 H94        28.5060   28.4246   -0.4631 H         1 UNK         0.2990 
     95 H95        29.9268   27.3241   -1.9065 H         1 UNK         0.0690 
     96 H96        32.1772   26.8559   -0.8815 H         1 UNK         0.0788 
     97 H97        31.4017   26.0169    0.4608 H         1 UNK         0.0788 
     98 H98        31.1559   27.7413    0.2378 H         1 UNK         0.0788 
     99 H99        30.2971   24.4394   -1.2406 H         1 UNK         0.2993 
    100 H100       29.5724   23.4409   -4.4986 H         1 UNK         0.0949 
    101 H101       32.0092   23.8373   -4.8793 H         1 UNK         0.0767 
    102 H102       32.3773   23.2614   -3.2590 H         1 UNK         0.0767 
    103 H103       31.7106   22.1575   -4.4635 H         1 UNK         0.0767 
    104 H104       30.5306   22.1882   -2.0371 H         1 UNK         0.3013 
    105 H105       29.4510   28.1958    5.3426 H         1 UNK         0.3121 
    106 H106       29.9891   29.9976    6.4354 H         1 UNK         0.0774 
    107 H107       28.6199   30.8566    8.3105 H         1 UNK         0.0815 
    108 H108       27.2253   29.9438    7.7603 H         1 UNK         0.0815 
    109 H109       28.6618   29.1014    8.3421 H         1 UNK         0.0815 
    110 H110       27.0186   30.2581    4.6225 H         1 UNK         0.2987 
    111 H111       26.8599   33.1058    4.4288 H         1 UNK         0.0949 
    112 H112       25.8262   30.9043    2.5660 H         1 UNK         0.0806 
    113 H113       24.9403   31.6529    3.8906 H         1 UNK         0.0806 
    114 H114       25.3621   32.5981    2.4711 H         1 UNK         0.0806 
    115 H115       28.7070   30.6855    2.5821 H         1 UNK         0.3010 
    116 H116       29.9815   32.7440    0.8686 H         1 UNK         0.0829 
    117 H117       29.6237   30.4633   -0.0773 H         1 UNK         0.0813 
    118 H118       31.3413   30.7988    0.0876 H         1 UNK         0.0813 
    119 H119       30.5381   29.7512    1.2508 H         1 UNK         0.0813 
    120 H120       31.4780   34.0116    1.8577 H         1 UNK         0.3038 
    121 H121       32.2202   33.7904    4.5096 H         1 UNK         0.0769 
    122 H122       32.2367   35.9181    3.2512 H         1 UNK         0.0811 
    123 H123       33.6009   35.3723    2.2742 H         1 UNK         0.0811 
    124 H124       33.8047   35.6633    3.9959 H         1 UNK         0.0811 
    125 H125       34.0181   32.5436    1.7274 H         1 UNK         0.3204 
    126 H126       36.3716   31.7774    3.2942 H         1 UNK         0.0748 
    127 H127       36.5901   32.4173    0.9017 H         1 UNK         0.0771 
    128 H128       37.0980   30.7546    1.1408 H         1 UNK         0.0771 
    129 H129       35.5283   31.0917    0.4245 H         1 UNK         0.0771 
    130 H130       33.2482   30.3923    2.6870 H         1 UNK         0.2980 
    131 H131       32.3156   28.4513    2.7596 H         1 UNK         0.0545 
    132 H132       34.7762   26.7184    0.5155 H         1 UNK         0.3459 
    133 H133       34.3426   28.3987    0.7029 H         1 UNK         0.3459 
    134 H134       34.0642   27.4565    5.0323 H         1 UNK         0.0616 
    135 H135       33.2316   28.9634    5.2425 H         1 UNK         0.0616 
    136 H136       32.1062   25.4628    6.6450 H         1 UNK         0.0634 
    137 H137       33.1757   25.3700    5.2691 H         1 UNK         0.0634 
@<TRIPOS>BOND
     1    1    2 1    
     2    1   72 1    
     3    1   73 1    
     4    1   74 1    
     5    2    3 2    
     6    2    4 am   BACKBONE|DICT|INTERRES
     7    4    5 1    
     8    4   75 1    
     9    5    6 1    
    10    5   35 1    
    11    5   76 1    
    12    6    7 1    
    13    6   77 1    
    14    6   78 1    
    15    7    8 1    
    16    8    9 1    
    17    8   79 1    
    18    8   80 1    
    19    9   10 ar   
    20    9   14 ar   
    21   10   11 ar   
    22   10   81 1    
    23   11   12 ar   
    24   11   71 1    
    25   12   13 ar   
    26   12   82 1    
    27   13   14 ar   
    28   13   15 1    
    29   14   83 1    
    30   15   16 1    
    31   15   84 1    
    32   15   85 1    
    33   16   17 1    
    34   17   18 1    
    35   17   86 1    
    36   17   87 1    
    37   18   19 1    
    38   18   37 1    
    39   18   88 1    
    40   19   20 am   BACKBONE|DICT|INTERRES
    41   19   89 1    
    42   20   21 2    
    43   20   22 1    
    44   22   23 1    
    45   22   24 1    
    46   22   90 1    
    47   23   91 1    
    48   23   92 1    
    49   23   93 1    
    50   24   25 am   BACKBONE|DICT|INTERRES
    51   24   94 1    
    52   25   26 2    
    53   25   27 1    
    54   27   28 1    
    55   27   29 1    
    56   27   95 1    
    57   28   96 1    
    58   28   97 1    
    59   28   98 1    
    60   29   30 am   BACKBONE|DICT|INTERRES
    61   29   99 1    
    62   30   31 2    
    63   30   32 1    
    64   32   33 1    
    65   32   34 1    
    66   32  100 1    
    67   33  101 1    
    68   33  102 1    
    69   33  103 1    
    70   34   35 am   BACKBONE|DICT|INTERRES
    71   34  104 1    
    72   35   36 2    
    73   37   38 2    
    74   37   39 am   BACKBONE|DICT|INTERRES
    75   39   40 1    
    76   39  105 1    
    77   40   41 1    
    78   40   42 1    
    79   40  106 1    
    80   41  107 1    
    81   41  108 1    
    82   41  109 1    
    83   42   43 2    
    84   42   44 am   BACKBONE|DICT|INTERRES
    85   44   45 1    
    86   44  110 1    
    87   45   46 1    
    88   45   47 1    
    89   45  111 1    
    90   46  112 1    
    91   46  113 1    
    92   46  114 1    
    93   47   48 2    
    94   47   49 am   BACKBONE|DICT|INTERRES
    95   49   50 1    
    96   49  115 1    
    97   50   51 1    
    98   50   52 1    
    99   50  116 1    
   100   51  117 1    
   101   51  118 1    
   102   51  119 1    
   103   52   53 2    
   104   52   54 am   BACKBONE|DICT|INTERRES
   105   54   55 1    
   106   54  120 1    
   107   55   56 1    
   108   55   57 1    
   109   55  121 1    
   110   56  122 1    
   111   56  123 1    
   112   56  124 1    
   113   57   58 2    
   114   57   59 am   BACKBONE|DICT|INTERRES
   115   59   60 1    
   116   59  125 1    
   117   60   61 1    
   118   60   62 1    
   119   60  126 1    
   120   61  127 1    
   121   61  128 1    
   122   61  129 1    
   123   62   63 2    
   124   62   64 am   BACKBONE|DICT|INTERRES
   125   64   65 1    
   126   64  130 1    
   127   65   66 1    
   128   65   69 1    
   129   65  131 1    
   130   66   67 am   BACKBONE|DICT|INTERRES
   131   66   68 2    
   132   67  132 1    
   133   67  133 1    
   134   69   70 1    
   135   69  134 1    
   136   69  135 1    
   137   70   71 1    
   138   71  136 1    
   139   71  137 1    
@<TRIPOS>SUBSTRUCTURE
     1 UNK         1 GROUP             0       ****    0 ROOT    
