@<TRIPOS>MOLECULE
3R136
137   139    1
SMALL
USER_CHARGES


@<TRIPOS>ATOM
      1 CA         30.5434   20.5725   -1.7820 C.3       0 UNK        -0.1979 
      2 C          30.1907   21.7688   -0.9110 C.2       0 UNK         0.4864 
      3 O          30.4465   22.9072   -1.3033 O.2       0 UNK        -0.5359 
      4 N          29.6081   21.5187    0.2696 N.am      1 UNK        -0.4318 
      5 CA         29.2081   22.5487    1.2372 C.3       1 UNK         0.0824 
      6 C6         28.9547   21.9477    2.6453 C.3       12 UNK        -0.0944 
      7 S7         30.3177   21.0015    3.4200 S.3       12 UNK        -0.2672 
      8 C8         31.8706   21.7364    2.7899 C.3       12 UNK         0.0333 
      9 C9         32.1002   23.2124    3.1205 C.ar      12 UNK        -0.0807 
     10 C10        32.9951   23.9359    2.3263 C.ar      12 UNK        -0.0894 
     11 C11        33.2618   25.2811    2.5914 C.ar      12 UNK        -0.0804 
     12 C12        32.5978   25.9193    3.6423 C.ar      12 UNK        -0.0824 
     13 C13        31.6941   25.2169    4.4446 C.ar      12 UNK        -0.0762 
     14 C14        31.4746   23.8559    4.1972 C.ar      12 UNK        -0.0782 
     15 C15        30.9867   25.9443    5.5862 C.3       12 UNK         0.0230 
     16 S16        29.2092   25.5486    5.7602 S.3       12 UNK        -0.2608 
     17 C17        28.5611   25.7296    4.0622 C.3       12 UNK        -0.0989 
     18 CA         28.6502   27.1550    3.4657 C.3       5 UNK         0.0716 
     19 N          28.6013   27.1006    2.0007 N.am      5 UNK        -0.4135 
     20 C          28.9649   28.0989    1.1837 C.2       4 UNK         0.5031 
     21 O          29.3492   29.2018    1.5690 O.2       4 UNK        -0.5229 
     22 CA         28.8205   27.8428   -0.3254 C.3       4 UNK         0.0329 
     23 CB         29.9498   26.9361   -0.8385 C.3       4 UNK        -0.2001 
     24 N          27.5292   27.2638   -0.6993 N.am      4 UNK        -0.4303 
     25 C          26.3262   27.7982   -0.4578 C.2       3 UNK         0.5044 
     26 O          26.1634   28.8516    0.1562 O.2       3 UNK        -0.5152 
     27 CA         25.0891   27.0229   -0.9497 C.3       3 UNK         0.0319 
     28 CB         24.8054   27.3105   -2.4367 C.3       3 UNK        -0.2001 
     29 N          25.1277   25.5798   -0.6662 N.am      3 UNK        -0.4354 
     30 C          25.9535   24.6479   -1.1635 C.2       2 UNK         0.4964 
     31 O          26.8016   24.8590   -2.0332 O.2       2 UNK        -0.5047 
     32 CA         25.8359   23.2444   -0.5477 C.3       2 UNK         0.0288 
     33 CB         25.2377   22.2564   -1.5626 C.3       2 UNK        -0.2113 
     34 N          27.1198   22.7243   -0.0664 N.am      2 UNK        -0.4145 
     35 C          27.9591   23.3380    0.7851 C.2       1 UNK         0.5006 
     36 O          27.7695   24.4674    1.2424 O.2       1 UNK        -0.5103 
     37 C          27.5895   28.1057    4.0641 C.2       5 UNK         0.5055 
     38 O          27.7940   28.6377    5.1563 O.2       5 UNK        -0.5220 
     39 N          26.4771   28.3165    3.3441 N.am      6 UNK        -0.4450 
     40 CA         25.4504   29.2965    3.7017 C.3       6 UNK         0.0367 
     41 CB         24.1258   28.9460    3.0041 C.3       6 UNK        -0.1929 
     42 C          25.8926   30.7290    3.3592 C.2       6 UNK         0.5070 
     43 O          25.5854   31.6508    4.1153 O.2       6 UNK        -0.5237 
     44 N          26.6045   30.8907    2.2345 N.am      7 UNK        -0.4739 
     45 CA         27.1463   32.1659    1.7647 C.3       7 UNK         0.0276 
     46 CB         27.6085   32.0269    0.3050 C.3       7 UNK        -0.1927 
     47 C          28.2799   32.7073    2.6519 C.2       7 UNK         0.5013 
     48 O          28.2959   33.9092    2.9232 O.2       7 UNK        -0.5193 
     49 N          29.1943   31.8343    3.0962 N.am      8 UNK        -0.4253 
     50 CA         30.3065   32.1884    3.9779 C.3       8 UNK         0.0242 
     51 CB         31.4610   32.7855    3.1522 C.3       8 UNK        -0.2000 
     52 C          30.7765   30.9561    4.7576 C.2       8 UNK         0.4948 
     53 O          30.7173   29.8434    4.2378 O.2       8 UNK        -0.5275 
     54 N          31.2814   31.1789    5.9791 N.am      9 UNK        -0.4246 
     55 CA         31.7916   30.1301    6.8728 C.3       9 UNK         0.0261 
     56 CB         32.0121   30.7234    8.2741 C.3       9 UNK        -0.1959 
     57 C          33.0774   29.4432    6.3719 C.2       9 UNK         0.5033 
     58 O          33.3525   28.3140    6.7796 O.2       9 UNK        -0.5390 
     59 N          33.8305   30.1244    5.5025 N.am      10 UNK        -0.4215 
     60 CA         34.9888   29.6084    4.7846 C.3       10 UNK         0.0240 
     61 CB         36.2815   30.0942    5.4611 C.3       10 UNK        -0.1982 
     62 C          34.8908   30.1144    3.3427 C.2       10 UNK         0.4970 
     63 O          34.4229   31.2344    3.1248 O.2       10 UNK        -0.4916 
     64 N          35.3308   29.2835    2.3948 N.am      11 UNK        -0.4279 
     65 CA         35.2208   29.5328    0.9476 C.3       11 UNK         0.1003 
     66 C          36.3778   30.3892    0.3552 C.2       11 UNK         0.5709 
     67 N          37.3955   30.7606    1.1234 N.am      11 UNK        -0.7358 
     68 O          36.3461   30.7347   -0.8236 O.2       11 UNK        -0.4999 
     69 C69        35.0278   28.2080    0.1604 C.3       12 UNK        -0.0954 
     70 S70        33.5459   27.2868    0.6984 S.3       12 UNK        -0.2268 
     71 C71        34.3014   26.0333    1.7757 C.3       12 UNK         0.0203 
     72 H72        31.6153   20.5542   -1.9769 H         1 UNK         0.0888 
     73 H73        30.2688   19.6289   -1.3108 H         1 UNK         0.0888 
     74 H74        30.0241   20.6384   -2.7377 H         1 UNK         0.0888 
     75 H75        29.4437   20.5629    0.5541 H         1 UNK         0.3017 
     76 H76        30.0155   23.2795    1.3088 H         1 UNK         0.0873 
     77 H77        28.6873   22.7390    3.3472 H         1 UNK         0.0745 
     78 H78        28.0881   21.2839    2.6159 H         1 UNK         0.0745 
     79 H79        32.7005   21.1684    3.2119 H         1 UNK         0.0705 
     80 H80        31.9237   21.5818    1.7122 H         1 UNK         0.0705 
     81 H81        33.5026   23.4431    1.5079 H         1 UNK         0.1334 
     82 H82        32.7941   26.9649    3.8401 H         1 UNK         0.1417 
     83 H83        30.7977   23.3091    4.8381 H         1 UNK         0.1562 
     84 H84        31.0840   27.0248    5.4682 H         1 UNK         0.0748 
     85 H85        31.4920   25.6983    6.5209 H         1 UNK         0.0748 
     86 H86        27.5336   25.3614    4.0373 H         1 UNK         0.0940 
     87 H87        29.1254   25.0413    3.4349 H         1 UNK         0.0940 
     88 H88        29.6268   27.5674    3.7183 H         1 UNK         0.0703 
     89 H89        28.2821   26.2225    1.5957 H         1 UNK         0.3081 
     90 H90        28.9007   28.8067   -0.8320 H         1 UNK         0.0719 
     91 H91        29.9211   25.9472   -0.3780 H         1 UNK         0.0809 
     92 H92        29.8930   26.8022   -1.9188 H         1 UNK         0.0809 
     93 H93        30.9241   27.3721   -0.6194 H         1 UNK         0.0809 
     94 H94        27.5451   26.3822   -1.2058 H         1 UNK         0.2990 
     95 H95        24.2407   27.4069   -0.3808 H         1 UNK         0.0690 
     96 H96        23.8942   26.8135   -2.7694 H         1 UNK         0.0788 
     97 H97        25.6207   26.9839   -3.0826 H         1 UNK         0.0788 
     98 H98        24.6710   28.3800   -2.6046 H         1 UNK         0.0788 
     99 H99        24.4882   25.2849    0.0592 H         1 UNK         0.2993 
    100 H100       25.1695   23.2935    0.3159 H         1 UNK         0.0949 
    101 H101       25.8862   22.1299   -2.4308 H         1 UNK         0.0767 
    102 H102       25.0770   21.2747   -1.1164 H         1 UNK         0.0767 
    103 H103       24.2710   22.6074   -1.9266 H         1 UNK         0.0767 
    104 H104       27.3848   21.8108   -0.4026 H         1 UNK         0.3013 
    105 H105       26.3941   27.8749    2.4399 H         1 UNK         0.3121 
    106 H106       25.2821   29.2482    4.7800 H         1 UNK         0.0774 
    107 H107       24.2062   29.0032    1.9187 H         1 UNK         0.0815 
    108 H108       23.3370   29.6365    3.3054 H         1 UNK         0.0815 
    109 H109       23.7928   27.9414    3.2649 H         1 UNK         0.0815 
    110 H110       26.7549   30.0862    1.6340 H         1 UNK         0.2987 
    111 H111       26.3352   32.8970    1.7899 H         1 UNK         0.0949 
    112 H112       28.4173   31.3033    0.2025 H         1 UNK         0.0806 
    113 H113       26.7909   31.7063   -0.3409 H         1 UNK         0.0806 
    114 H114       27.9733   32.9799   -0.0804 H         1 UNK         0.0806 
    115 H115       29.1467   30.8551    2.8206 H         1 UNK         0.3010 
    116 H116       29.9596   32.9313    4.6998 H         1 UNK         0.0829 
    117 H117       31.1550   33.6937    2.6330 H         1 UNK         0.0813 
    118 H118       32.3070   33.0483    3.7881 H         1 UNK         0.0813 
    119 H119       31.8224   32.0781    2.4043 H         1 UNK         0.0813 
    120 H120       31.3078   32.1252    6.3324 H         1 UNK         0.3038 
    121 H121       31.0236   29.3567    6.9469 H         1 UNK         0.0769 
    122 H122       32.7575   31.5196    8.2635 H         1 UNK         0.0811 
    123 H123       32.3622   29.9595    8.9700 H         1 UNK         0.0811 
    124 H124       31.0878   31.1311    8.6837 H         1 UNK         0.0811 
    125 H125       33.4983   31.0195    5.1675 H         1 UNK         0.3204 
    126 H126       34.9680   28.5161    4.7776 H         1 UNK         0.0748 
    127 H127       37.1624   29.7146    4.9421 H         1 UNK         0.0771 
    128 H128       36.3484   31.1831    5.4691 H         1 UNK         0.0771 
    129 H129       36.3395   29.7486    6.4934 H         1 UNK         0.0771 
    130 H130       35.7459   28.4040    2.6603 H         1 UNK         0.2980 
    131 H131       34.3197   30.1271    0.7823 H         1 UNK         0.0545 
    132 H132       38.1343   31.3199    0.7269 H         1 UNK         0.3459 
    133 H133       37.4276   30.4949    2.0939 H         1 UNK         0.3459 
    134 H134       35.9110   27.5725    0.2476 H         1 UNK         0.0616 
    135 H135       34.9069   28.4126   -0.9049 H         1 UNK         0.0616 
    136 H136       35.0051   26.5071    2.4599 H         1 UNK         0.0634 
    137 H137       34.8857   25.3461    1.1618 H         1 UNK         0.0634 
@<TRIPOS>BOND
     1    1    2 1    
     2    1   72 1    
     3    1   73 1    
     4    1   74 1    
     5    2    3 2    
     6    2    4 am   BACKBONE|DICT|INTERRES
     7    4    5 1    
     8    4   75 1    
     9    5    6 1    
    10    5   35 1    
    11    5   76 1    
    12    6    7 1    
    13    6   77 1    
    14    6   78 1    
    15    7    8 1    
    16    8    9 1    
    17    8   79 1    
    18    8   80 1    
    19    9   10 ar   
    20    9   14 ar   
    21   10   11 ar   
    22   10   81 1    
    23   11   12 ar   
    24   11   71 1    
    25   12   13 ar   
    26   12   82 1    
    27   13   14 ar   
    28   13   15 1    
    29   14   83 1    
    30   15   16 1    
    31   15   84 1    
    32   15   85 1    
    33   16   17 1    
    34   17   18 1    
    35   17   86 1    
    36   17   87 1    
    37   18   19 1    
    38   18   37 1    
    39   18   88 1    
    40   19   20 am   BACKBONE|DICT|INTERRES
    41   19   89 1    
    42   20   21 2    
    43   20   22 1    
    44   22   23 1    
    45   22   24 1    
    46   22   90 1    
    47   23   91 1    
    48   23   92 1    
    49   23   93 1    
    50   24   25 am   BACKBONE|DICT|INTERRES
    51   24   94 1    
    52   25   26 2    
    53   25   27 1    
    54   27   28 1    
    55   27   29 1    
    56   27   95 1    
    57   28   96 1    
    58   28   97 1    
    59   28   98 1    
    60   29   30 am   BACKBONE|DICT|INTERRES
    61   29   99 1    
    62   30   31 2    
    63   30   32 1    
    64   32   33 1    
    65   32   34 1    
    66   32  100 1    
    67   33  101 1    
    68   33  102 1    
    69   33  103 1    
    70   34   35 am   BACKBONE|DICT|INTERRES
    71   34  104 1    
    72   35   36 2    
    73   37   38 2    
    74   37   39 am   BACKBONE|DICT|INTERRES
    75   39   40 1    
    76   39  105 1    
    77   40   41 1    
    78   40   42 1    
    79   40  106 1    
    80   41  107 1    
    81   41  108 1    
    82   41  109 1    
    83   42   43 2    
    84   42   44 am   BACKBONE|DICT|INTERRES
    85   44   45 1    
    86   44  110 1    
    87   45   46 1    
    88   45   47 1    
    89   45  111 1    
    90   46  112 1    
    91   46  113 1    
    92   46  114 1    
    93   47   48 2    
    94   47   49 am   BACKBONE|DICT|INTERRES
    95   49   50 1    
    96   49  115 1    
    97   50   51 1    
    98   50   52 1    
    99   50  116 1    
   100   51  117 1    
   101   51  118 1    
   102   51  119 1    
   103   52   53 2    
   104   52   54 am   BACKBONE|DICT|INTERRES
   105   54   55 1    
   106   54  120 1    
   107   55   56 1    
   108   55   57 1    
   109   55  121 1    
   110   56  122 1    
   111   56  123 1    
   112   56  124 1    
   113   57   58 2    
   114   57   59 am   BACKBONE|DICT|INTERRES
   115   59   60 1    
   116   59  125 1    
   117   60   61 1    
   118   60   62 1    
   119   60  126 1    
   120   61  127 1    
   121   61  128 1    
   122   61  129 1    
   123   62   63 2    
   124   62   64 am   BACKBONE|DICT|INTERRES
   125   64   65 1    
   126   64  130 1    
   127   65   66 1    
   128   65   69 1    
   129   65  131 1    
   130   66   67 am   BACKBONE|DICT|INTERRES
   131   66   68 2    
   132   67  132 1    
   133   67  133 1    
   134   69   70 1    
   135   69  134 1    
   136   69  135 1    
   137   70   71 1    
   138   71  136 1    
   139   71  137 1    
@<TRIPOS>SUBSTRUCTURE
     1 UNK         1 GROUP             0       ****    0 ROOT    
