@<TRIPOS>MOLECULE
3R136
137   139    1
SMALL
USER_CHARGES


@<TRIPOS>ATOM
      1 CA         28.1824   20.5538    5.0983 C.3       0 UNK        -0.1979 
      2 C          28.5355   21.7955    4.2935 C.2       0 UNK         0.4864 
      3 O          28.9046   22.8145    4.8785 O.2       0 UNK        -0.5359 
      4 N          28.4013   21.7224    2.9610 N.am      1 UNK        -0.4318 
      5 CA         28.7251   22.7410    1.9452 C.3       1 UNK         0.0824 
      6 C6         30.2180   23.1654    1.9209 C.3       12 UNK        -0.0944 
      7 S7         31.3688   21.7685    1.6717 S.3       12 UNK        -0.2672 
      8 C8         32.0239   22.0741   -0.0073 C.3       12 UNK         0.0333 
      9 C9         32.6797   23.4434   -0.1729 C.ar      12 UNK        -0.0807 
     10 C10        33.6022   23.9198    0.7651 C.ar      12 UNK        -0.0894 
     11 C11        34.1539   25.1986    0.6366 C.ar      12 UNK        -0.0804 
     12 C12        33.8043   25.9906   -0.4609 C.ar      12 UNK        -0.0824 
     13 C13        32.8856   25.5278   -1.4054 C.ar      12 UNK        -0.0762 
     14 C14        32.3400   24.2477   -1.2653 C.ar      12 UNK        -0.0782 
     15 C15        32.4580   26.4297   -2.5544 C.3       12 UNK         0.0230 
     16 S16        31.2348   27.6711   -2.0174 S.3       12 UNK        -0.2608 
     17 C17        29.7822   26.6157   -1.6904 C.3       12 UNK        -0.0989 
     18 CA         28.6840   27.3247   -0.8604 C.3       5 UNK         0.0716 
     19 N          27.4483   26.5513   -0.8653 N.am      5 UNK        -0.4135 
     20 C          26.4970   26.6333   -1.8033 C.2       4 UNK         0.5031 
     21 O          26.5115   27.4587   -2.7175 O.2       4 UNK        -0.5229 
     22 CA         25.3440   25.6193   -1.7418 C.3       4 UNK         0.0329 
     23 CB         25.7364   24.3292   -2.4813 C.3       4 UNK        -0.2001 
     24 N          24.9688   25.2845   -0.3670 N.am      4 UNK        -0.4303 
     25 C          23.7686   25.5177    0.1826 C.2       3 UNK         0.5044 
     26 O          22.8288   26.0433   -0.4157 O.2       3 UNK        -0.5152 
     27 CA         23.5643   25.0849    1.6486 C.3       3 UNK         0.0319 
     28 CB         22.8670   23.7162    1.7100 C.3       3 UNK        -0.2001 
     29 N          24.8049   25.0241    2.4251 N.am      3 UNK        -0.4354 
     30 C          25.5551   26.0868    2.7461 C.2       2 UNK         0.4964 
     31 O          25.2415   27.2486    2.4870 O.2       2 UNK        -0.5047 
     32 CA         26.8928   25.8169    3.4552 C.3       2 UNK         0.0288 
     33 CB         26.7300   25.9834    4.9751 C.3       2 UNK        -0.2113 
     34 N          27.5284   24.5197    3.1798 N.am      2 UNK        -0.4145 
     35 C          27.8209   23.9927    1.9819 C.2       1 UNK         0.5006 
     36 O          27.4081   24.4552    0.9180 O.2       1 UNK        -0.5103 
     37 C          29.0901   27.5762    0.6018 C.2       5 UNK         0.5055 
     38 O          29.7620   26.7442    1.2159 O.2       5 UNK        -0.5220 
     39 N          28.6599   28.7238    1.1409 N.am      6 UNK        -0.4450 
     40 CA         29.0966   29.2340    2.4446 C.3       6 UNK         0.0367 
     41 CB         28.0005   30.1397    3.0265 C.3       6 UNK        -0.1929 
     42 C          30.4327   29.9957    2.3646 C.2       6 UNK         0.5070 
     43 O          31.0492   30.2332    3.4063 O.2       6 UNK        -0.5237 
     44 N          30.8489   30.3815    1.1476 N.am      7 UNK        -0.4739 
     45 CA         31.9846   31.2589    0.8390 C.3       7 UNK         0.0276 
     46 CB         33.3228   30.5613    1.1714 C.3       7 UNK        -0.1927 
     47 C          31.7969   32.6384    1.5018 C.2       7 UNK         0.5013 
     48 O          30.6803   33.1617    1.4880 O.2       7 UNK        -0.5193 
     49 N          32.8493   33.1906    2.1175 N.am      8 UNK        -0.4253 
     50 CA         32.8008   34.4189    2.9194 C.3       8 UNK         0.0242 
     51 CB         34.1925   35.0798    2.8968 C.3       8 UNK        -0.2000 
     52 C          32.2963   34.1439    4.3538 C.2       8 UNK         0.4948 
     53 O          32.9117   34.6090    5.3146 O.2       8 UNK        -0.5275 
     54 N          31.2087   33.3629    4.4679 N.am      9 UNK        -0.4246 
     55 CA         30.6250   32.8028    5.6957 C.3       9 UNK         0.0261 
     56 CB         29.9594   33.9109    6.5387 C.3       9 UNK        -0.1959 
     57 C          31.6514   31.9681    6.4898 C.2       9 UNK         0.5033 
     58 O          31.8116   32.1640    7.6970 O.2       9 UNK        -0.5390 
     59 N          32.3566   31.0847    5.7732 N.am      10 UNK        -0.4215 
     60 CA         33.5167   30.3373    6.2640 C.3       10 UNK         0.0240 
     61 CB         34.7934   30.9664    5.6783 C.3       10 UNK        -0.1982 
     62 C          33.4606   28.8383    5.9336 C.2       10 UNK         0.4970 
     63 O          34.1051   28.0606    6.6391 O.2       10 UNK        -0.4916 
     64 N          32.7223   28.4556    4.8851 N.am      11 UNK        -0.4279 
     65 CA         32.5552   27.0685    4.4374 C.3       11 UNK         0.1003 
     66 C          31.1963   26.5194    4.9464 C.2       11 UNK         0.5709 
     67 N          30.2753   26.1259    4.0779 N.am      11 UNK        -0.7358 
     68 O          30.9837   26.4089    6.1517 O.2       11 UNK        -0.4999 
     69 C69        32.7814   26.9281    2.9095 C.3       12 UNK        -0.0954 
     70 S70        34.4957   27.3235    2.4165 S.3       12 UNK        -0.2268 
     71 C71        35.0815   25.7417    1.7173 C.3       12 UNK         0.0203 
     72 H72        29.0480   20.2217    5.6708 H         1 UNK         0.0888 
     73 H73        27.3763   20.7763    5.7969 H         1 UNK         0.0888 
     74 H74        27.8618   19.7304    4.4604 H         1 UNK         0.0888 
     75 H75        28.0651   20.8524    2.5717 H         1 UNK         0.3017 
     76 H76        28.5167   22.2602    0.9878 H         1 UNK         0.0873 
     77 H77        30.4944   23.6511    2.8572 H         1 UNK         0.0745 
     78 H78        30.3840   23.9137    1.1435 H         1 UNK         0.0745 
     79 H79        31.2069   21.9486   -0.7196 H         1 UNK         0.0705 
     80 H80        32.7590   21.3034   -0.2423 H         1 UNK         0.0705 
     81 H81        33.8609   23.3061    1.6171 H         1 UNK         0.1334 
     82 H82        34.2134   26.9873   -0.5554 H         1 UNK         0.1417 
     83 H83        31.6246   23.8904   -1.9935 H         1 UNK         0.1562 
     84 H84        32.0450   25.8431   -3.3766 H         1 UNK         0.0748 
     85 H85        33.3314   26.9454   -2.9561 H         1 UNK         0.0748 
     86 H86        30.0843   25.6949   -1.1920 H         1 UNK         0.0940 
     87 H87        29.3814   26.3135   -2.6592 H         1 UNK         0.0940 
     88 H88        28.4917   28.2968   -1.3202 H         1 UNK         0.0703 
     89 H89        27.3922   25.8265   -0.1501 H         1 UNK         0.3081 
     90 H90        24.4984   26.0650   -2.2699 H         1 UNK         0.0719 
     91 H91        26.0250   24.5407   -3.5119 H         1 UNK         0.0809 
     92 H92        26.5783   23.8281   -2.0013 H         1 UNK         0.0809 
     93 H93        24.9043   23.6259   -2.5161 H         1 UNK         0.0809 
     94 H94        25.6929   24.8653    0.2092 H         1 UNK         0.2990 
     95 H95        22.9106   25.8229    2.1185 H         1 UNK         0.0690 
     96 H96        22.6403   23.4312    2.7376 H         1 UNK         0.0788 
     97 H97        23.4812   22.9298    1.2692 H         1 UNK         0.0788 
     98 H98        21.9219   23.7351    1.1653 H         1 UNK         0.0788 
     99 H99        25.1395   24.1076    2.6844 H         1 UNK         0.2993 
    100 H100       27.5828   26.5842    3.1019 H         1 UNK         0.0949 
    101 H101       26.2935   26.9534    5.2183 H         1 UNK         0.0767 
    102 H102       26.0767   25.2169    5.3939 H         1 UNK         0.0767 
    103 H103       27.6869   25.9249    5.4934 H         1 UNK         0.0767 
    104 H104       27.9167   24.0209    3.9795 H         1 UNK         0.3013 
    105 H105       28.0619   29.3282    0.5947 H         1 UNK         0.3121 
    106 H106       29.2379   28.4016    3.1334 H         1 UNK         0.0774 
    107 H107       28.2766   30.4964    4.0197 H         1 UNK         0.0815 
    108 H108       27.8250   31.0168    2.4023 H         1 UNK         0.0815 
    109 H109       27.0568   29.6029    3.1283 H         1 UNK         0.0815 
    110 H110       30.2634   30.1448    0.3607 H         1 UNK         0.2987 
    111 H111       31.9594   31.4341   -0.2376 H         1 UNK         0.0949 
    112 H112       34.1752   31.1409    0.8157 H         1 UNK         0.0806 
    113 H113       33.3800   29.5887    0.6822 H         1 UNK         0.0806 
    114 H114       33.4523   30.3964    2.2415 H         1 UNK         0.0806 
    115 H115       33.7247   32.6875    2.1159 H         1 UNK         0.3010 
    116 H116       32.0963   35.1177    2.4629 H         1 UNK         0.0829 
    117 H117       34.9468   34.4488    3.3687 H         1 UNK         0.0813 
    118 H118       34.5173   35.2872    1.8770 H         1 UNK         0.0813 
    119 H119       34.1830   36.0316    3.4298 H         1 UNK         0.0813 
    120 H120       30.7852   33.0514    3.6004 H         1 UNK         0.3038 
    121 H121       29.8433   32.1100    5.3806 H         1 UNK         0.0769 
    122 H122       29.4425   33.4877    7.4009 H         1 UNK         0.0811 
    123 H123       29.2207   34.4619    5.9568 H         1 UNK         0.0811 
    124 H124       30.6901   34.6264    6.9170 H         1 UNK         0.0811 
    125 H125       32.0801   30.9403    4.8049 H         1 UNK         0.3204 
    126 H126       33.5709   30.4091    7.3524 H         1 UNK         0.0748 
    127 H127       35.6854   30.4521    6.0386 H         1 UNK         0.0771 
    128 H128       34.8035   30.9159    4.5887 H         1 UNK         0.0771 
    129 H129       34.8847   32.0145    5.9652 H         1 UNK         0.0771 
    130 H130       32.1746   29.1392    4.3722 H         1 UNK         0.2980 
    131 H131       33.3048   26.4350    4.9148 H         1 UNK         0.0545 
    132 H132       29.4271   25.7267    4.4403 H         1 UNK         0.3459 
    133 H133       30.3934   26.2408    3.0766 H         1 UNK         0.3459 
    134 H134       32.5393   25.9133    2.5937 H         1 UNK         0.0616 
    135 H135       32.1123   27.5851    2.3537 H         1 UNK         0.0616 
    136 H136       35.1918   25.0241    2.5318 H         1 UNK         0.0634 
    137 H137       36.0760   25.8880    1.2943 H         1 UNK         0.0634 
@<TRIPOS>BOND
     1    1    2 1    
     2    1   72 1    
     3    1   73 1    
     4    1   74 1    
     5    2    3 2    
     6    2    4 am   BACKBONE|DICT|INTERRES
     7    4    5 1    
     8    4   75 1    
     9    5    6 1    
    10    5   35 1    
    11    5   76 1    
    12    6    7 1    
    13    6   77 1    
    14    6   78 1    
    15    7    8 1    
    16    8    9 1    
    17    8   79 1    
    18    8   80 1    
    19    9   10 ar   
    20    9   14 ar   
    21   10   11 ar   
    22   10   81 1    
    23   11   12 ar   
    24   11   71 1    
    25   12   13 ar   
    26   12   82 1    
    27   13   14 ar   
    28   13   15 1    
    29   14   83 1    
    30   15   16 1    
    31   15   84 1    
    32   15   85 1    
    33   16   17 1    
    34   17   18 1    
    35   17   86 1    
    36   17   87 1    
    37   18   19 1    
    38   18   37 1    
    39   18   88 1    
    40   19   20 am   BACKBONE|DICT|INTERRES
    41   19   89 1    
    42   20   21 2    
    43   20   22 1    
    44   22   23 1    
    45   22   24 1    
    46   22   90 1    
    47   23   91 1    
    48   23   92 1    
    49   23   93 1    
    50   24   25 am   BACKBONE|DICT|INTERRES
    51   24   94 1    
    52   25   26 2    
    53   25   27 1    
    54   27   28 1    
    55   27   29 1    
    56   27   95 1    
    57   28   96 1    
    58   28   97 1    
    59   28   98 1    
    60   29   30 am   BACKBONE|DICT|INTERRES
    61   29   99 1    
    62   30   31 2    
    63   30   32 1    
    64   32   33 1    
    65   32   34 1    
    66   32  100 1    
    67   33  101 1    
    68   33  102 1    
    69   33  103 1    
    70   34   35 am   BACKBONE|DICT|INTERRES
    71   34  104 1    
    72   35   36 2    
    73   37   38 2    
    74   37   39 am   BACKBONE|DICT|INTERRES
    75   39   40 1    
    76   39  105 1    
    77   40   41 1    
    78   40   42 1    
    79   40  106 1    
    80   41  107 1    
    81   41  108 1    
    82   41  109 1    
    83   42   43 2    
    84   42   44 am   BACKBONE|DICT|INTERRES
    85   44   45 1    
    86   44  110 1    
    87   45   46 1    
    88   45   47 1    
    89   45  111 1    
    90   46  112 1    
    91   46  113 1    
    92   46  114 1    
    93   47   48 2    
    94   47   49 am   BACKBONE|DICT|INTERRES
    95   49   50 1    
    96   49  115 1    
    97   50   51 1    
    98   50   52 1    
    99   50  116 1    
   100   51  117 1    
   101   51  118 1    
   102   51  119 1    
   103   52   53 2    
   104   52   54 am   BACKBONE|DICT|INTERRES
   105   54   55 1    
   106   54  120 1    
   107   55   56 1    
   108   55   57 1    
   109   55  121 1    
   110   56  122 1    
   111   56  123 1    
   112   56  124 1    
   113   57   58 2    
   114   57   59 am   BACKBONE|DICT|INTERRES
   115   59   60 1    
   116   59  125 1    
   117   60   61 1    
   118   60   62 1    
   119   60  126 1    
   120   61  127 1    
   121   61  128 1    
   122   61  129 1    
   123   62   63 2    
   124   62   64 am   BACKBONE|DICT|INTERRES
   125   64   65 1    
   126   64  130 1    
   127   65   66 1    
   128   65   69 1    
   129   65  131 1    
   130   66   67 am   BACKBONE|DICT|INTERRES
   131   66   68 2    
   132   67  132 1    
   133   67  133 1    
   134   69   70 1    
   135   69  134 1    
   136   69  135 1    
   137   70   71 1    
   138   71  136 1    
   139   71  137 1    
@<TRIPOS>SUBSTRUCTURE
     1 UNK         1 GROUP             0       ****    0 ROOT    
