@<TRIPOS>MOLECULE
3R136
137   139    1
SMALL
USER_CHARGES


@<TRIPOS>ATOM
      1 CA         25.1593   20.2623    2.0177 C.3       0 UNK        -0.1979 
      2 C          25.8878   21.3324    1.2183 C.2       0 UNK         0.4864 
      3 O          25.2689   22.3126    0.8031 O.2       0 UNK        -0.5359 
      4 N          27.1959   21.1482    0.9950 N.am      1 UNK        -0.4318 
      5 CA         28.0667   22.0912    0.2834 C.3       1 UNK         0.0824 
      6 C6         29.3871   21.4194   -0.1771 C.3       12 UNK        -0.0944 
      7 S7         30.3601   20.6838    1.1897 S.3       12 UNK        -0.2672 
      8 C8         32.0757   21.1019    0.7363 C.3       12 UNK         0.0333 
      9 C9         32.3355   22.6027    0.7182 C.ar      12 UNK        -0.0807 
     10 C10        32.3359   23.3383    1.9074 C.ar      12 UNK        -0.0894 
     11 C11        32.5814   24.7161    1.8940 C.ar      12 UNK        -0.0804 
     12 C12        32.8266   25.3546    0.6734 C.ar      12 UNK        -0.0824 
     13 C13        32.8118   24.6336   -0.5254 C.ar      12 UNK        -0.0762 
     14 C14        32.5867   23.2542   -0.4923 C.ar      12 UNK        -0.0782 
     15 C15        32.9827   25.3588   -1.8577 C.3       12 UNK         0.0230 
     16 S16        31.6276   25.0219   -3.0419 S.3       12 UNK        -0.2608 
     17 C17        30.1340   25.2698   -2.0151 C.3       12 UNK        -0.0989 
     18 CA         29.2684   26.5136   -2.3258 C.3       5 UNK         0.0716 
     19 N          28.1404   26.5642   -1.3923 N.am      5 UNK        -0.4135 
     20 C          27.0353   27.3059   -1.5381 C.2       4 UNK         0.5031 
     21 O          26.8291   28.0571   -2.4917 O.2       4 UNK        -0.5229 
     22 CA         25.9694   27.1675   -0.4381 C.3       4 UNK         0.0329 
     23 CB         25.1380   25.8910   -0.6465 C.3       4 UNK        -0.2001 
     24 N          26.5490   27.1522    0.9062 N.am      4 UNK        -0.4303 
     25 C          27.0157   28.2280    1.5521 C.2       3 UNK         0.5044 
     26 O          26.9715   29.3661    1.0880 O.2       3 UNK        -0.5152 
     27 CA         27.6553   28.0264    2.9402 C.3       3 UNK         0.0319 
     28 CB         26.6636   28.3617    4.0703 C.3       3 UNK        -0.2001 
     29 N          28.3008   26.7250    3.1503 N.am      3 UNK        -0.4354 
     30 C          27.7449   25.5116    3.2462 C.2       2 UNK         0.4964 
     31 O          26.5328   25.2944    3.2079 O.2       2 UNK        -0.5047 
     32 CA         28.7280   24.3361    3.3581 C.3       2 UNK         0.0288 
     33 CB         28.7623   23.7824    4.7907 C.3       2 UNK        -0.2113 
     34 N          28.4196   23.2557    2.4215 N.am      2 UNK        -0.4145 
     35 C          28.3283   23.3823    1.0881 C.2       1 UNK         0.5006 
     36 O          28.4360   24.4551    0.4900 O.2       1 UNK        -0.5103 
     37 C          30.0786   27.8272   -2.3179 C.2       5 UNK         0.5055 
     38 O          30.4137   28.3380   -3.3887 O.2       5 UNK        -0.5220 
     39 N          30.3709   28.3440   -1.1177 N.am      6 UNK        -0.4450 
     40 CA         31.1061   29.5875   -0.8990 C.3       6 UNK         0.0367 
     41 CB         32.3743   29.2948   -0.0689 C.3       6 UNK        -0.1929 
     42 C          30.1542   30.6053   -0.2552 C.2       6 UNK         0.5070 
     43 O          29.2958   31.1493   -0.9503 O.2       6 UNK        -0.5237 
     44 N          30.3166   30.8438    1.0484 N.am      7 UNK        -0.4739 
     45 CA         29.4970   31.7212    1.8744 C.3       7 UNK         0.0276 
     46 CB         29.9629   33.1801    1.7163 C.3       7 UNK        -0.1927 
     47 C          29.6529   31.2585    3.3235 C.2       7 UNK         0.5013 
     48 O          30.6731   30.6466    3.6556 O.2       7 UNK        -0.5193 
     49 N          28.6737   31.5835    4.1770 N.am      8 UNK        -0.4253 
     50 CA         28.6788   31.2399    5.6055 C.3       8 UNK         0.0242 
     51 CB         27.3506   31.6717    6.2465 C.3       8 UNK        -0.2000 
     52 C          29.8719   31.8325    6.3771 C.2       8 UNK         0.4948 
     53 O          30.3812   31.1869    7.2917 O.2       8 UNK        -0.5275 
     54 N          30.3309   33.0204    5.9587 N.am      9 UNK        -0.4246 
     55 CA         31.5333   33.6788    6.4746 C.3       9 UNK         0.0261 
     56 CB         31.5638   35.1323    5.9738 C.3       9 UNK        -0.1959 
     57 C          32.8438   32.9565    6.1041 C.2       9 UNK         0.5033 
     58 O          33.8349   33.1263    6.8157 O.2       9 UNK        -0.5390 
     59 N          32.8370   32.1814    5.0099 N.am      10 UNK        -0.4215 
     60 CA         33.9734   31.3804    4.5572 C.3       10 UNK         0.0240 
     61 CB         33.9861   31.3130    3.0198 C.3       10 UNK        -0.1982 
     62 C          33.9289   29.9738    5.1692 C.2       10 UNK         0.4970 
     63 O          34.9460   29.5136    5.6897 O.2       10 UNK        -0.4916 
     64 N          32.7625   29.3187    5.0930 N.am      11 UNK        -0.4279 
     65 CA         32.5453   27.9628    5.6180 C.3       11 UNK         0.1003 
     66 C          32.4662   27.8731    7.1676 C.2       11 UNK         0.5709 
     67 N          32.0804   28.9217    7.8828 N.am      11 UNK        -0.7358 
     68 O          32.7743   26.8271    7.7339 O.2       11 UNK        -0.4999 
     69 C69        31.3237   27.2750    4.9575 C.3       12 UNK        -0.0954 
     70 S70        31.5551   26.9887    3.1710 S.3       12 UNK        -0.2268 
     71 C71        32.6058   25.4967    3.2041 C.3       12 UNK         0.0203 
     72 H72        24.3471   19.8403    1.4263 H         1 UNK         0.0888 
     73 H73        24.7333   20.6956    2.9223 H         1 UNK         0.0888 
     74 H74        25.8231   19.4490    2.3110 H         1 UNK         0.0888 
     75 H75        27.6538   20.3188    1.3471 H         1 UNK         0.3017 
     76 H76        27.5345   22.4013   -0.6188 H         1 UNK         0.0873 
     77 H77        29.9957   22.1348   -0.7317 H         1 UNK         0.0745 
     78 H78        29.1604   20.6230   -0.8874 H         1 UNK         0.0745 
     79 H79        32.7510   20.6338    1.4538 H         1 UNK         0.0705 
     80 H80        32.3040   20.6544   -0.2323 H         1 UNK         0.0705 
     81 H81        32.1448   22.8313    2.8435 H         1 UNK         0.1334 
     82 H82        33.0102   26.4197    0.6589 H         1 UNK         0.1417 
     83 H83        32.5762   22.6948   -1.4180 H         1 UNK         0.1562 
     84 H84        33.9301   25.0597   -2.3077 H         1 UNK         0.0748 
     85 H85        33.0412   26.4371   -1.7046 H         1 UNK         0.0748 
     86 H86        30.4083   25.2891   -0.9618 H         1 UNK         0.0940 
     87 H87        29.5226   24.3734   -2.1301 H         1 UNK         0.0940 
     88 H88        28.8594   26.3925   -3.3313 H         1 UNK         0.0703 
     89 H89        28.1940   25.9268   -0.5996 H         1 UNK         0.3081 
     90 H90        25.2977   28.0254   -0.5143 H         1 UNK         0.0719 
     91 H91        25.7444   24.9892   -0.5478 H         1 UNK         0.0809 
     92 H92        24.3262   25.8248    0.0781 H         1 UNK         0.0809 
     93 H93        24.6875   25.8752   -1.6398 H         1 UNK         0.0809 
     94 H94        26.5868   26.2603    1.3876 H         1 UNK         0.2990 
     95 H95        28.4710   28.7448    3.0001 H         1 UNK         0.0690 
     96 H96        27.1364   28.2855    5.0492 H         1 UNK         0.0788 
     97 H97        25.7969   27.7004    4.0630 H         1 UNK         0.0788 
     98 H98        26.2912   29.3815    3.9674 H         1 UNK         0.0788 
     99 H99        29.3132   26.7669    3.1625 H         1 UNK         0.2993 
    100 H100       29.7285   24.6869    3.1030 H         1 UNK         0.0949 
    101 H101       29.0168   24.5662    5.5056 H         1 UNK         0.0767 
    102 H102       27.7958   23.3717    5.0861 H         1 UNK         0.0767 
    103 H103       29.5099   22.9956    4.8946 H         1 UNK         0.0767 
    104 H104       28.2948   22.3357    2.8157 H         1 UNK         0.3013 
    105 H105       30.0018   27.8887   -0.2961 H         1 UNK         0.3121 
    106 H106       31.4278   30.0225   -1.8476 H         1 UNK         0.0774 
    107 H107       33.0559   28.6463   -0.6184 H         1 UNK         0.0815 
    108 H108       32.1495   28.8071    0.8793 H         1 UNK         0.0815 
    109 H109       32.9216   30.2132    0.1478 H         1 UNK         0.0815 
    110 H110       31.0130   30.3285    1.5727 H         1 UNK         0.2987 
    111 H111       28.4494   31.6250    1.5803 H         1 UNK         0.0949 
    112 H112       31.0073   33.3036    2.0063 H         1 UNK         0.0806 
    113 H113       29.8622   33.5184    0.6849 H         1 UNK         0.0806 
    114 H114       29.3680   33.8541    2.3337 H         1 UNK         0.0806 
    115 H115       27.8712   32.0925    3.8336 H         1 UNK         0.3010 
    116 H116       28.7576   30.1532    5.6805 H         1 UNK         0.0829 
    117 H117       26.5007   31.1814    5.7720 H         1 UNK         0.0813 
    118 H118       27.3246   31.4059    7.3044 H         1 UNK         0.0813 
    119 H119       27.1988   32.7496    6.1779 H         1 UNK         0.0813 
    120 H120       29.8406   33.4860    5.2092 H         1 UNK         0.3038 
    121 H121       31.4668   33.6936    7.5647 H         1 UNK         0.0769 
    122 H122       31.6142   35.1846    4.8854 H         1 UNK         0.0811 
    123 H123       32.4339   35.6613    6.3655 H         1 UNK         0.0811 
    124 H124       30.6805   35.6832    6.2976 H         1 UNK         0.0811 
    125 H125       31.9635   32.0360    4.5192 H         1 UNK         0.3204 
    126 H126       34.9045   31.8558    4.8739 H         1 UNK         0.0748 
    127 H127       34.0502   32.3088    2.5809 H         1 UNK         0.0771 
    128 H128       34.8467   30.7456    2.6633 H         1 UNK         0.0771 
    129 H129       33.0939   30.8304    2.6224 H         1 UNK         0.0771 
    130 H130       31.9730   29.7536    4.6230 H         1 UNK         0.2980 
    131 H131       33.4244   27.3756    5.3457 H         1 UNK         0.0545 
    132 H132       32.0467   28.8382    8.8856 H         1 UNK         0.3459 
    133 H133       31.7267   29.7654    7.4446 H         1 UNK         0.3459 
    134 H134       31.1055   26.3162    5.4318 H         1 UNK         0.0616 
    135 H135       30.4304   27.8875    5.0942 H         1 UNK         0.0616 
    136 H136       32.2868   24.8543    4.0261 H         1 UNK         0.0634 
    137 H137       33.6331   25.7911    3.4217 H         1 UNK         0.0634 
@<TRIPOS>BOND
     1    1    2 1    
     2    1   72 1    
     3    1   73 1    
     4    1   74 1    
     5    2    3 2    
     6    2    4 am   BACKBONE|DICT|INTERRES
     7    4    5 1    
     8    4   75 1    
     9    5    6 1    
    10    5   35 1    
    11    5   76 1    
    12    6    7 1    
    13    6   77 1    
    14    6   78 1    
    15    7    8 1    
    16    8    9 1    
    17    8   79 1    
    18    8   80 1    
    19    9   10 ar   
    20    9   14 ar   
    21   10   11 ar   
    22   10   81 1    
    23   11   12 ar   
    24   11   71 1    
    25   12   13 ar   
    26   12   82 1    
    27   13   14 ar   
    28   13   15 1    
    29   14   83 1    
    30   15   16 1    
    31   15   84 1    
    32   15   85 1    
    33   16   17 1    
    34   17   18 1    
    35   17   86 1    
    36   17   87 1    
    37   18   19 1    
    38   18   37 1    
    39   18   88 1    
    40   19   20 am   BACKBONE|DICT|INTERRES
    41   19   89 1    
    42   20   21 2    
    43   20   22 1    
    44   22   23 1    
    45   22   24 1    
    46   22   90 1    
    47   23   91 1    
    48   23   92 1    
    49   23   93 1    
    50   24   25 am   BACKBONE|DICT|INTERRES
    51   24   94 1    
    52   25   26 2    
    53   25   27 1    
    54   27   28 1    
    55   27   29 1    
    56   27   95 1    
    57   28   96 1    
    58   28   97 1    
    59   28   98 1    
    60   29   30 am   BACKBONE|DICT|INTERRES
    61   29   99 1    
    62   30   31 2    
    63   30   32 1    
    64   32   33 1    
    65   32   34 1    
    66   32  100 1    
    67   33  101 1    
    68   33  102 1    
    69   33  103 1    
    70   34   35 am   BACKBONE|DICT|INTERRES
    71   34  104 1    
    72   35   36 2    
    73   37   38 2    
    74   37   39 am   BACKBONE|DICT|INTERRES
    75   39   40 1    
    76   39  105 1    
    77   40   41 1    
    78   40   42 1    
    79   40  106 1    
    80   41  107 1    
    81   41  108 1    
    82   41  109 1    
    83   42   43 2    
    84   42   44 am   BACKBONE|DICT|INTERRES
    85   44   45 1    
    86   44  110 1    
    87   45   46 1    
    88   45   47 1    
    89   45  111 1    
    90   46  112 1    
    91   46  113 1    
    92   46  114 1    
    93   47   48 2    
    94   47   49 am   BACKBONE|DICT|INTERRES
    95   49   50 1    
    96   49  115 1    
    97   50   51 1    
    98   50   52 1    
    99   50  116 1    
   100   51  117 1    
   101   51  118 1    
   102   51  119 1    
   103   52   53 2    
   104   52   54 am   BACKBONE|DICT|INTERRES
   105   54   55 1    
   106   54  120 1    
   107   55   56 1    
   108   55   57 1    
   109   55  121 1    
   110   56  122 1    
   111   56  123 1    
   112   56  124 1    
   113   57   58 2    
   114   57   59 am   BACKBONE|DICT|INTERRES
   115   59   60 1    
   116   59  125 1    
   117   60   61 1    
   118   60   62 1    
   119   60  126 1    
   120   61  127 1    
   121   61  128 1    
   122   61  129 1    
   123   62   63 2    
   124   62   64 am   BACKBONE|DICT|INTERRES
   125   64   65 1    
   126   64  130 1    
   127   65   66 1    
   128   65   69 1    
   129   65  131 1    
   130   66   67 am   BACKBONE|DICT|INTERRES
   131   66   68 2    
   132   67  132 1    
   133   67  133 1    
   134   69   70 1    
   135   69  134 1    
   136   69  135 1    
   137   70   71 1    
   138   71  136 1    
   139   71  137 1    
@<TRIPOS>SUBSTRUCTURE
     1 UNK         1 GROUP             0       ****    0 ROOT    
