@<TRIPOS>MOLECULE
3R136
137   139    1
SMALL
USER_CHARGES


@<TRIPOS>ATOM
      1 CA         32.1440   26.7177    0.2522 C.3       0 UNK        -0.1979 
      2 C          30.8722   25.8886    0.3572 C.2       0 UNK         0.4864 
      3 O          29.7710   26.4371    0.2934 O.2       0 UNK        -0.5359 
      4 N          31.0156   24.5638    0.5017 N.am      1 UNK        -0.4318 
      5 CA         29.9166   23.6021    0.6718 C.3       1 UNK         0.0824 
      6 C6         30.4183   22.1613    0.9620 C.3       12 UNK        -0.0944 
      7 S7         31.8216   22.0658    2.1265 S.3       12 UNK        -0.2672 
      8 C8         30.9803   21.9584    3.7397 C.3       12 UNK         0.0333 
      9 C9         30.3433   23.2708    4.1887 C.ar      12 UNK        -0.0807 
     10 C10        31.0242   24.4871    4.0618 C.ar      12 UNK        -0.0894 
     11 C11        30.4566   25.6806    4.5199 C.ar      12 UNK        -0.0804 
     12 C12        29.1956   25.6473    5.1221 C.ar      12 UNK        -0.0824 
     13 C13        28.4935   24.4441    5.2353 C.ar      12 UNK        -0.0762 
     14 C14        29.0733   23.2601    4.7712 C.ar      12 UNK        -0.0782 
     15 C15        27.1047   24.4163    5.8523 C.3       12 UNK         0.0230 
     16 S16        25.8180   24.6368    4.5838 S.3       12 UNK        -0.2608 
     17 C17        25.8055   26.4507    4.3632 C.3       12 UNK        -0.0989 
     18 CA         26.5364   26.9424    3.0790 C.3       5 UNK         0.0716 
     19 N          26.1005   26.2813    1.8439 N.am      5 UNK        -0.4135 
     20 C          24.8560   26.1998    1.3545 C.2       4 UNK         0.5031 
     21 O          23.8667   26.7113    1.8815 O.2       4 UNK        -0.5229 
     22 CA         24.7263   25.4446    0.0186 C.3       4 UNK         0.0329 
     23 CB         23.3298   25.5810   -0.6253 C.3       4 UNK        -0.2001 
     24 N          25.7833   25.8205   -0.9297 N.am      4 UNK        -0.4303 
     25 C          26.0267   27.0458   -1.4253 C.2       3 UNK         0.5044 
     26 O          25.3552   28.0349   -1.1348 O.2       3 UNK        -0.5152 
     27 CA         27.2377   27.2235   -2.3642 C.3       3 UNK         0.0319 
     28 CB         28.0887   28.4366   -1.9496 C.3       3 UNK        -0.2001 
     29 N          28.0966   26.0383   -2.4125 N.am      3 UNK        -0.4354 
     30 C          27.8921   24.9777   -3.2078 C.2       2 UNK         0.4964 
     31 O          26.9919   24.9197   -4.0454 O.2       2 UNK        -0.5047 
     32 CA         28.8194   23.7613   -3.0279 C.3       2 UNK         0.0288 
     33 CB         29.8529   23.7025   -4.1648 C.3       2 UNK        -0.2113 
     34 N          29.5241   23.7209   -1.7431 N.am      2 UNK        -0.4145 
     35 C          28.9542   23.5889   -0.5346 C.2       1 UNK         0.5006 
     36 O          27.7383   23.5004   -0.3545 O.2       1 UNK        -0.5103 
     37 C          26.5425   28.4874    3.0006 C.2       5 UNK         0.5055 
     38 O          26.9072   29.1191    3.9936 O.2       5 UNK        -0.5220 
     39 N          26.1693   29.0878    1.8569 N.am      6 UNK        -0.4450 
     40 CA         26.1252   30.5448    1.6753 C.3       6 UNK         0.0367 
     41 CB         25.3628   30.8918    0.3879 C.3       6 UNK        -0.1929 
     42 C          27.5166   31.1997    1.6657 C.2       6 UNK         0.5070 
     43 O          27.6520   32.3413    2.1071 O.2       6 UNK        -0.5237 
     44 N          28.5348   30.4626    1.2024 N.am      7 UNK        -0.4739 
     45 CA         29.9424   30.8670    1.2155 C.3       7 UNK         0.0276 
     46 CB         30.6782   30.1568    0.0663 C.3       7 UNK        -0.1927 
     47 C          30.5781   30.6019    2.5938 C.2       7 UNK         0.5013 
     48 O          31.5487   29.8496    2.6991 O.2       7 UNK        -0.5193 
     49 N          29.9946   31.2154    3.6316 N.am      8 UNK        -0.4253 
     50 CA         30.4446   31.1596    5.0225 C.3       8 UNK         0.0242 
     51 CB         29.4213   31.8872    5.9082 C.3       8 UNK        -0.2000 
     52 C          31.8441   31.7701    5.1957 C.2       8 UNK         0.4948 
     53 O          32.2054   32.6938    4.4619 O.2       8 UNK        -0.5275 
     54 N          32.6135   31.2272    6.1486 N.am      9 UNK        -0.4246 
     55 CA         34.0082   31.5514    6.4926 C.3       9 UNK         0.0261 
     56 CB         34.1646   33.0206    6.9320 C.3       9 UNK        -0.1959 
     57 C          35.0417   31.1819    5.4103 C.2       9 UNK         0.5033 
     58 O          36.1350   30.7385    5.7631 O.2       9 UNK        -0.5390 
     59 N          34.6840   31.3175    4.1257 N.am      10 UNK        -0.4215 
     60 CA         35.4900   30.9358    2.9600 C.3       10 UNK         0.0240 
     61 CB         34.7550   31.3512    1.6754 C.3       10 UNK        -0.1982 
     62 C          35.8478   29.4382    2.9179 C.2       10 UNK         0.4970 
     63 O          36.9087   29.0876    2.4002 O.2       10 UNK        -0.4916 
     64 N          34.9792   28.5945    3.4889 N.am      11 UNK        -0.4279 
     65 CA         35.2322   27.1720    3.7568 C.3       11 UNK         0.1003 
     66 C          36.2564   26.8806    4.8961 C.2       11 UNK         0.5709 
     67 N          36.7222   27.8614    5.6613 N.am      11 UNK        -0.7358 
     68 O          36.6541   25.7323    5.0782 O.2       11 UNK        -0.4999 
     69 C69        33.9105   26.3803    3.9431 C.3       12 UNK        -0.0954 
     70 S70        32.7791   27.0893    5.1956 S.3       12 UNK        -0.2268 
     71 C71        31.1743   27.0127    4.3327 C.3       12 UNK         0.0203 
     72 H72        32.1728   27.4694    1.0404 H         1 UNK         0.0888 
     73 H73        32.1770   27.2310   -0.7082 H         1 UNK         0.0888 
     74 H74        33.0400   26.1034    0.3391 H         1 UNK         0.0888 
     75 H75        31.9418   24.1649    0.5663 H         1 UNK         0.3017 
     76 H76        29.3390   23.9383    1.5357 H         1 UNK         0.0873 
     77 H77        29.5989   21.5447    1.3363 H         1 UNK         0.0745 
     78 H78        30.7548   21.6806    0.0410 H         1 UNK         0.0745 
     79 H79        30.2411   21.1568    3.7001 H         1 UNK         0.0705 
     80 H80        31.7135   21.6620    4.4907 H         1 UNK         0.0705 
     81 H81        31.9988   24.5001    3.5995 H         1 UNK         0.1334 
     82 H82        28.7457   26.5635    5.4798 H         1 UNK         0.1417 
     83 H83        28.5330   22.3281    4.8690 H         1 UNK         0.1562 
     84 H84        27.0091   25.1763    6.6292 H         1 UNK         0.0748 
     85 H85        26.9422   23.4589    6.3498 H         1 UNK         0.0748 
     86 H86        26.2394   26.9141    5.2508 H         1 UNK         0.0940 
     87 H87        24.7636   26.7750    4.3535 H         1 UNK         0.0940 
     88 H88        27.5866   26.6676    3.1735 H         1 UNK         0.0703 
     89 H89        26.8379   25.8364    1.3150 H         1 UNK         0.3081 
     90 H90        24.8816   24.3893    0.2490 H         1 UNK         0.0719 
     91 H91        23.0798   26.6208   -0.8389 H         1 UNK         0.0809 
     92 H92        23.2675   25.0223   -1.5590 H         1 UNK         0.0809 
     93 H93        22.5559   25.1918    0.0374 H         1 UNK         0.0809 
     94 H94        26.4223   25.0745   -1.1777 H         1 UNK         0.2990 
     95 H95        26.8421   27.4194   -3.3629 H         1 UNK         0.0690 
     96 H96        28.9616   28.5505   -2.5926 H         1 UNK         0.0788 
     97 H97        28.4383   28.3465   -0.9222 H         1 UNK         0.0788 
     98 H98        27.5162   29.3622   -2.0193 H         1 UNK         0.0788 
     99 H99        28.8365   25.9992   -1.7215 H         1 UNK         0.2993 
    100 H100       28.1910   22.8699   -3.0874 H         1 UNK         0.0949 
    101 H101       29.3626   23.6970   -5.1396 H         1 UNK         0.0767 
    102 H102       30.5258   24.5609   -4.1435 H         1 UNK         0.0767 
    103 H103       30.4585   22.7978   -4.1055 H         1 UNK         0.0767 
    104 H104       30.5298   23.8049   -1.7803 H         1 UNK         0.3013 
    105 H105       25.8548   28.5224    1.0779 H         1 UNK         0.3121 
    106 H106       25.5712   30.9664    2.5169 H         1 UNK         0.0774 
    107 H107       25.8972   30.5569   -0.5013 H         1 UNK         0.0815 
    108 H108       25.2277   31.9702    0.2959 H         1 UNK         0.0815 
    109 H109       24.3716   30.4381    0.3752 H         1 UNK         0.0815 
    110 H110       28.3408   29.5168    0.9091 H         1 UNK         0.2987 
    111 H111       30.0121   31.9421    1.0346 H         1 UNK         0.0949 
    112 H112       30.5969   29.0748    0.1521 H         1 UNK         0.0806 
    113 H113       30.2715   30.4466   -0.9025 H         1 UNK         0.0806 
    114 H114       31.7393   30.4090    0.0599 H         1 UNK         0.0806 
    115 H115       29.1988   31.8098    3.4301 H         1 UNK         0.3010 
    116 H116       30.4807   30.1096    5.3172 H         1 UNK         0.0829 
    117 H117       28.4320   31.4365    5.8212 H         1 UNK         0.0813 
    118 H118       29.7071   31.8395    6.9599 H         1 UNK         0.0813 
    119 H119       29.3351   32.9413    5.6408 H         1 UNK         0.0813 
    120 H120       32.2215   30.4606    6.6791 H         1 UNK         0.3038 
    121 H121       34.2415   30.9301    7.3590 H         1 UNK         0.0769 
    122 H122       33.9863   33.7167    6.1121 H         1 UNK         0.0811 
    123 H123       35.1744   33.2090    7.2990 H         1 UNK         0.0811 
    124 H124       33.4754   33.2689    7.7391 H         1 UNK         0.0811 
    125 H125       33.7736   31.7343    3.9463 H         1 UNK         0.3204 
    126 H126       36.4271   31.4931    3.0157 H         1 UNK         0.0748 
    127 H127       35.3514   31.1199    0.7918 H         1 UNK         0.0771 
    128 H128       33.8025   30.8309    1.5708 H         1 UNK         0.0771 
    129 H129       34.5553   32.4228    1.6600 H         1 UNK         0.0771 
    130 H130       34.1211   28.9654    3.8706 H         1 UNK         0.2980 
    131 H131       35.7037   26.7688    2.8585 H         1 UNK         0.0545 
    132 H132       37.3884   27.6383    6.3830 H         1 UNK         0.3459 
    133 H133       36.4297   28.8246    5.5347 H         1 UNK         0.3459 
    134 H134       33.3975   26.3413    2.9825 H         1 UNK         0.0616 
    135 H135       34.1125   25.3404    4.2057 H         1 UNK         0.0616 
    136 H136       30.5546   27.8268    4.7087 H         1 UNK         0.0634 
    137 H137       31.3025   27.2097    3.2690 H         1 UNK         0.0634 
@<TRIPOS>BOND
     1    1    2 1    
     2    1   72 1    
     3    1   73 1    
     4    1   74 1    
     5    2    3 2    
     6    2    4 am   BACKBONE|DICT|INTERRES
     7    4    5 1    
     8    4   75 1    
     9    5    6 1    
    10    5   35 1    
    11    5   76 1    
    12    6    7 1    
    13    6   77 1    
    14    6   78 1    
    15    7    8 1    
    16    8    9 1    
    17    8   79 1    
    18    8   80 1    
    19    9   10 ar   
    20    9   14 ar   
    21   10   11 ar   
    22   10   81 1    
    23   11   12 ar   
    24   11   71 1    
    25   12   13 ar   
    26   12   82 1    
    27   13   14 ar   
    28   13   15 1    
    29   14   83 1    
    30   15   16 1    
    31   15   84 1    
    32   15   85 1    
    33   16   17 1    
    34   17   18 1    
    35   17   86 1    
    36   17   87 1    
    37   18   19 1    
    38   18   37 1    
    39   18   88 1    
    40   19   20 am   BACKBONE|DICT|INTERRES
    41   19   89 1    
    42   20   21 2    
    43   20   22 1    
    44   22   23 1    
    45   22   24 1    
    46   22   90 1    
    47   23   91 1    
    48   23   92 1    
    49   23   93 1    
    50   24   25 am   BACKBONE|DICT|INTERRES
    51   24   94 1    
    52   25   26 2    
    53   25   27 1    
    54   27   28 1    
    55   27   29 1    
    56   27   95 1    
    57   28   96 1    
    58   28   97 1    
    59   28   98 1    
    60   29   30 am   BACKBONE|DICT|INTERRES
    61   29   99 1    
    62   30   31 2    
    63   30   32 1    
    64   32   33 1    
    65   32   34 1    
    66   32  100 1    
    67   33  101 1    
    68   33  102 1    
    69   33  103 1    
    70   34   35 am   BACKBONE|DICT|INTERRES
    71   34  104 1    
    72   35   36 2    
    73   37   38 2    
    74   37   39 am   BACKBONE|DICT|INTERRES
    75   39   40 1    
    76   39  105 1    
    77   40   41 1    
    78   40   42 1    
    79   40  106 1    
    80   41  107 1    
    81   41  108 1    
    82   41  109 1    
    83   42   43 2    
    84   42   44 am   BACKBONE|DICT|INTERRES
    85   44   45 1    
    86   44  110 1    
    87   45   46 1    
    88   45   47 1    
    89   45  111 1    
    90   46  112 1    
    91   46  113 1    
    92   46  114 1    
    93   47   48 2    
    94   47   49 am   BACKBONE|DICT|INTERRES
    95   49   50 1    
    96   49  115 1    
    97   50   51 1    
    98   50   52 1    
    99   50  116 1    
   100   51  117 1    
   101   51  118 1    
   102   51  119 1    
   103   52   53 2    
   104   52   54 am   BACKBONE|DICT|INTERRES
   105   54   55 1    
   106   54  120 1    
   107   55   56 1    
   108   55   57 1    
   109   55  121 1    
   110   56  122 1    
   111   56  123 1    
   112   56  124 1    
   113   57   58 2    
   114   57   59 am   BACKBONE|DICT|INTERRES
   115   59   60 1    
   116   59  125 1    
   117   60   61 1    
   118   60   62 1    
   119   60  126 1    
   120   61  127 1    
   121   61  128 1    
   122   61  129 1    
   123   62   63 2    
   124   62   64 am   BACKBONE|DICT|INTERRES
   125   64   65 1    
   126   64  130 1    
   127   65   66 1    
   128   65   69 1    
   129   65  131 1    
   130   66   67 am   BACKBONE|DICT|INTERRES
   131   66   68 2    
   132   67  132 1    
   133   67  133 1    
   134   69   70 1    
   135   69  134 1    
   136   69  135 1    
   137   70   71 1    
   138   71  136 1    
   139   71  137 1    
@<TRIPOS>SUBSTRUCTURE
     1 UNK         1 GROUP             0       ****    0 ROOT    
