@<TRIPOS>MOLECULE
3R136
137   139    1
SMALL
USER_CHARGES


@<TRIPOS>ATOM
      1 CA         29.8267   19.6576   -1.8119 C.3       0 UNK        -0.1979 
      2 C          29.3103   21.0867   -1.7379 C.2       0 UNK         0.4864 
      3 O          28.5438   21.5051   -2.6062 O.2       0 UNK        -0.5359 
      4 N          29.7277   21.8375   -0.7096 N.am      1 UNK        -0.4318 
      5 CA         29.3135   23.2213   -0.4479 C.3       1 UNK         0.0824 
      6 C6         30.2344   23.9243    0.5810 C.3       12 UNK        -0.0944 
      7 S7         30.5572   22.9532    2.0988 S.3       12 UNK        -0.2672 
      8 C8         29.4973   23.7739    3.3398 C.3       12 UNK         0.0333 
      9 C9         29.7883   25.2607    3.5210 C.ar      12 UNK        -0.0807 
     10 C10        31.1026   25.7379    3.5747 C.ar      12 UNK        -0.0894 
     11 C11        31.3580   27.1031    3.7187 C.ar      12 UNK        -0.0804 
     12 C12        30.2887   27.9960    3.8267 C.ar      12 UNK        -0.0824 
     13 C13        28.9699   27.5328    3.8046 C.ar      12 UNK        -0.0762 
     14 C14        28.7275   26.1633    3.6511 C.ar      12 UNK        -0.0782 
     15 C15        27.8136   28.5109    3.9803 C.3       12 UNK         0.0230 
     16 S16        26.6197   28.4641    2.6038 S.3       12 UNK        -0.2608 
     17 C17        27.6380   29.0409    1.2039 C.3       12 UNK        -0.0989 
     18 CA         28.0212   27.8780    0.2496 C.3       5 UNK         0.0716 
     19 N          26.8706   27.1891   -0.3451 N.am      5 UNK        -0.4135 
     20 C          25.9220   27.7140   -1.1355 C.2       4 UNK         0.5031 
     21 O          25.8841   28.8874   -1.5069 O.2       4 UNK        -0.5229 
     22 CA         24.7976   26.7632   -1.5767 C.3       4 UNK         0.0329 
     23 CB         25.2033   25.9842   -2.8390 C.3       4 UNK        -0.2001 
     24 N          24.4087   25.8255   -0.5207 N.am      4 UNK        -0.4303 
     25 C          23.6985   26.1559    0.5700 C.2       3 UNK         0.5044 
     26 O          23.2696   27.2908    0.7817 O.2       3 UNK        -0.5152 
     27 CA         23.3759   25.0392    1.5840 C.3       3 UNK         0.0319 
     28 CB         21.8606   24.7778    1.6375 C.3       3 UNK        -0.2001 
     29 N          24.0567   23.7812    1.2692 N.am      3 UNK        -0.4354 
     30 C          25.2799   23.4445    1.6965 C.2       2 UNK         0.4964 
     31 O          25.9187   24.0992    2.5213 O.2       2 UNK        -0.5047 
     32 CA         25.9072   22.1716    1.0855 C.3       2 UNK         0.0288 
     33 CB         25.1089   21.5848   -0.1022 C.3       2 UNK        -0.2113 
     34 N          27.3069   22.3537    0.6790 N.am      2 UNK        -0.4145 
     35 C          27.8249   23.3471   -0.0635 C.2       1 UNK         0.5006 
     36 O          27.1893   24.3259   -0.4620 O.2       1 UNK        -0.5103 
     37 C          29.0143   28.3143   -0.8446 C.2       5 UNK         0.5055 
     38 O          28.9747   29.4542   -1.3113 O.2       5 UNK        -0.5220 
     39 N          29.8880   27.3781   -1.2422 N.am      6 UNK        -0.4450 
     40 CA         30.9330   27.5641   -2.2575 C.3       6 UNK         0.0367 
     41 CB         31.5470   26.1944   -2.5923 C.3       6 UNK        -0.1929 
     42 C          32.0378   28.5681   -1.8647 C.2       6 UNK         0.5070 
     43 O          32.7625   29.0387   -2.7422 O.2       6 UNK        -0.5237 
     44 N          32.1459   28.8808   -0.5704 N.am      7 UNK        -0.4739 
     45 CA         32.9977   29.9169    0.0032 C.3       7 UNK         0.0276 
     46 CB         34.3030   29.2813    0.5148 C.3       7 UNK        -0.1927 
     47 C          32.2132   30.6051    1.1298 C.2       7 UNK         0.5013 
     48 O          31.1482   30.1170    1.5181 O.2       7 UNK        -0.5193 
     49 N          32.7441   31.7256    1.6346 N.am      8 UNK        -0.4253 
     50 CA         32.1640   32.4846    2.7462 C.3       8 UNK         0.0242 
     51 CB         32.9219   33.8138    2.8981 C.3       8 UNK        -0.2000 
     52 C          32.2070   31.6957    4.0652 C.2       8 UNK         0.4948 
     53 O          33.1712   30.9693    4.3083 O.2       8 UNK        -0.5275 
     54 N          31.1968   31.9049    4.9212 N.am      9 UNK        -0.4246 
     55 CA         30.9863   31.2189    6.2069 C.3       9 UNK         0.0261 
     56 CB         29.6219   31.6440    6.7761 C.3       9 UNK        -0.1959 
     57 C          32.0998   31.3927    7.2632 C.2       9 UNK         0.5033 
     58 O          32.0546   30.7251    8.2970 O.2       9 UNK        -0.5390 
     59 N          33.0868   32.2547    6.9873 N.am      10 UNK        -0.4215 
     60 CA         34.3367   32.3905    7.7373 C.3       10 UNK         0.0240 
     61 CB         35.0123   33.7112    7.3293 C.3       10 UNK        -0.1982 
     62 C          35.3069   31.2024    7.5509 C.2       10 UNK         0.4970 
     63 O          36.3094   31.1494    8.2653 O.2       10 UNK        -0.4916 
     64 N          35.0208   30.2965    6.6021 N.am      11 UNK        -0.4279 
     65 CA         35.7677   29.0596    6.3239 C.3       11 UNK         0.1003 
     66 C          36.0088   28.1412    7.5597 C.2       11 UNK         0.5709 
     67 N          37.0899   27.3719    7.5531 N.am      11 UNK        -0.7358 
     68 O          35.2189   28.0914    8.5013 O.2       11 UNK        -0.4999 
     69 C69        35.1318   28.2747    5.1428 C.3       12 UNK        -0.0954 
     70 S70        33.4216   27.7037    5.4498 S.3       12 UNK        -0.2268 
     71 C71        32.7894   27.6116    3.7497 C.3       12 UNK         0.0203 
     72 H72        30.4983   19.4231   -0.9861 H         1 UNK         0.0888 
     73 H73        28.9936   18.9559   -1.7811 H         1 UNK         0.0888 
     74 H74        30.3692   19.5025   -2.7442 H         1 UNK         0.0888 
     75 H75        30.3645   21.4459   -0.0289 H         1 UNK         0.3017 
     76 H76        29.4193   23.7611   -1.3917 H         1 UNK         0.0873 
     77 H77        29.8518   24.9128    0.8377 H         1 UNK         0.0745 
     78 H78        31.2047   24.1070    0.1168 H         1 UNK         0.0745 
     79 H79        28.4559   23.6190    3.0587 H         1 UNK         0.0705 
     80 H80        29.6334   23.2742    4.2995 H         1 UNK         0.0705 
     81 H81        31.9305   25.0470    3.4945 H         1 UNK         0.1334 
     82 H82        30.4892   29.0530    3.9322 H         1 UNK         0.1417 
     83 H83        27.7069   25.8035    3.6276 H         1 UNK         0.1562 
     84 H84        28.1796   29.5326    4.0957 H         1 UNK         0.0748 
     85 H85        27.2892   28.2687    4.9055 H         1 UNK         0.0748 
     86 H86        28.5353   29.5268    1.5913 H         1 UNK         0.0940 
     87 H87        27.0871   29.8185    0.6726 H         1 UNK         0.0940 
     88 H88        28.5322   27.1291    0.8565 H         1 UNK         0.0703 
     89 H89        26.8277   26.1877   -0.1757 H         1 UNK         0.3081 
     90 H90        23.9265   27.3737   -1.8251 H         1 UNK         0.0719 
     91 H91        25.4665   26.6668   -3.6482 H         1 UNK         0.0809 
     92 H92        26.0665   25.3416   -2.6635 H         1 UNK         0.0809 
     93 H93        24.3865   25.3579   -3.1981 H         1 UNK         0.0809 
     94 H94        24.7699   24.8853   -0.5948 H         1 UNK         0.2990 
     95 H95        23.6947   25.3920    2.5673 H         1 UNK         0.0690 
     96 H96        21.6154   24.0184    2.3803 H         1 UNK         0.0788 
     97 H97        21.4730   24.4440    0.6741 H         1 UNK         0.0788 
     98 H98        21.3166   25.6828    1.9117 H         1 UNK         0.0788 
     99 H99        23.5978   23.1733    0.6054 H         1 UNK         0.2993 
    100 H100       25.9119   21.4292    1.8850 H         1 UNK         0.0949 
    101 H101       25.0369   22.2882   -0.9331 H         1 UNK         0.0767 
    102 H102       25.5880   20.6826   -0.4835 H         1 UNK         0.0767 
    103 H103       24.0980   21.2992    0.1916 H         1 UNK         0.0767 
    104 H104       27.9438   21.6307    0.9816 H         1 UNK         0.3013 
    105 H105       29.8384   26.4647   -0.8191 H         1 UNK         0.3121 
    106 H106       30.4532   27.9535   -3.1580 H         1 UNK         0.0774 
    107 H107       32.0364   25.7482   -1.7257 H         1 UNK         0.0815 
    108 H108       30.7925   25.4953   -2.9535 H         1 UNK         0.0815 
    109 H109       32.2995   26.2865   -3.3769 H         1 UNK         0.0815 
    110 H110       31.4542   28.5218    0.0753 H         1 UNK         0.2987 
    111 H111       33.2269   30.6717   -0.7525 H         1 UNK         0.0949 
    112 H112       34.8705   28.8395   -0.3044 H         1 UNK         0.0806 
    113 H113       34.9478   30.0206    0.9913 H         1 UNK         0.0806 
    114 H114       34.1112   28.4955    1.2447 H         1 UNK         0.0806 
    115 H115       33.6370   32.0437    1.2877 H         1 UNK         0.3010 
    116 H116       31.1220   32.6990    2.4983 H         1 UNK         0.0829 
    117 H117       33.9732   33.6535    3.1422 H         1 UNK         0.0813 
    118 H118       32.4919   34.4233    3.6941 H         1 UNK         0.0813 
    119 H119       32.8762   34.4041    1.9826 H         1 UNK         0.0813 
    120 H120       30.4726   32.5549    4.6495 H         1 UNK         0.3038 
    121 H121       30.9430   30.1490    5.9949 H         1 UNK         0.0769 
    122 H122       28.8118   31.4119    6.0843 H         1 UNK         0.0811 
    123 H123       29.5898   32.7133    6.9882 H         1 UNK         0.0811 
    124 H124       29.4042   31.1207    7.7084 H         1 UNK         0.0811 
    125 H125       33.0395   32.7404    6.1038 H         1 UNK         0.3204 
    126 H126       34.0922   32.4433    8.8002 H         1 UNK         0.0748 
    127 H127       35.2812   33.7170    6.2721 H         1 UNK         0.0771 
    128 H128       34.3609   34.5652    7.5161 H         1 UNK         0.0771 
    129 H129       35.9280   33.8756    7.8992 H         1 UNK         0.0771 
    130 H130       34.2025   30.4409    6.0209 H         1 UNK         0.2980 
    131 H131       36.7530   29.3927    5.9931 H         1 UNK         0.0545 
    132 H132       37.2591   26.7602    8.3361 H         1 UNK         0.3459 
    133 H133       37.7408   27.3915    6.7835 H         1 UNK         0.3459 
    134 H134       35.7421   27.4074    4.8855 H         1 UNK         0.0616 
    135 H135       35.1321   28.9077    4.2538 H         1 UNK         0.0616 
    136 H136       32.8409   28.5973    3.2897 H         1 UNK         0.0634 
    137 H137       33.4343   26.9586    3.1598 H         1 UNK         0.0634 
@<TRIPOS>BOND
     1    1    2 1    
     2    1   72 1    
     3    1   73 1    
     4    1   74 1    
     5    2    3 2    
     6    2    4 am   BACKBONE|DICT|INTERRES
     7    4    5 1    
     8    4   75 1    
     9    5    6 1    
    10    5   35 1    
    11    5   76 1    
    12    6    7 1    
    13    6   77 1    
    14    6   78 1    
    15    7    8 1    
    16    8    9 1    
    17    8   79 1    
    18    8   80 1    
    19    9   10 ar   
    20    9   14 ar   
    21   10   11 ar   
    22   10   81 1    
    23   11   12 ar   
    24   11   71 1    
    25   12   13 ar   
    26   12   82 1    
    27   13   14 ar   
    28   13   15 1    
    29   14   83 1    
    30   15   16 1    
    31   15   84 1    
    32   15   85 1    
    33   16   17 1    
    34   17   18 1    
    35   17   86 1    
    36   17   87 1    
    37   18   19 1    
    38   18   37 1    
    39   18   88 1    
    40   19   20 am   BACKBONE|DICT|INTERRES
    41   19   89 1    
    42   20   21 2    
    43   20   22 1    
    44   22   23 1    
    45   22   24 1    
    46   22   90 1    
    47   23   91 1    
    48   23   92 1    
    49   23   93 1    
    50   24   25 am   BACKBONE|DICT|INTERRES
    51   24   94 1    
    52   25   26 2    
    53   25   27 1    
    54   27   28 1    
    55   27   29 1    
    56   27   95 1    
    57   28   96 1    
    58   28   97 1    
    59   28   98 1    
    60   29   30 am   BACKBONE|DICT|INTERRES
    61   29   99 1    
    62   30   31 2    
    63   30   32 1    
    64   32   33 1    
    65   32   34 1    
    66   32  100 1    
    67   33  101 1    
    68   33  102 1    
    69   33  103 1    
    70   34   35 am   BACKBONE|DICT|INTERRES
    71   34  104 1    
    72   35   36 2    
    73   37   38 2    
    74   37   39 am   BACKBONE|DICT|INTERRES
    75   39   40 1    
    76   39  105 1    
    77   40   41 1    
    78   40   42 1    
    79   40  106 1    
    80   41  107 1    
    81   41  108 1    
    82   41  109 1    
    83   42   43 2    
    84   42   44 am   BACKBONE|DICT|INTERRES
    85   44   45 1    
    86   44  110 1    
    87   45   46 1    
    88   45   47 1    
    89   45  111 1    
    90   46  112 1    
    91   46  113 1    
    92   46  114 1    
    93   47   48 2    
    94   47   49 am   BACKBONE|DICT|INTERRES
    95   49   50 1    
    96   49  115 1    
    97   50   51 1    
    98   50   52 1    
    99   50  116 1    
   100   51  117 1    
   101   51  118 1    
   102   51  119 1    
   103   52   53 2    
   104   52   54 am   BACKBONE|DICT|INTERRES
   105   54   55 1    
   106   54  120 1    
   107   55   56 1    
   108   55   57 1    
   109   55  121 1    
   110   56  122 1    
   111   56  123 1    
   112   56  124 1    
   113   57   58 2    
   114   57   59 am   BACKBONE|DICT|INTERRES
   115   59   60 1    
   116   59  125 1    
   117   60   61 1    
   118   60   62 1    
   119   60  126 1    
   120   61  127 1    
   121   61  128 1    
   122   61  129 1    
   123   62   63 2    
   124   62   64 am   BACKBONE|DICT|INTERRES
   125   64   65 1    
   126   64  130 1    
   127   65   66 1    
   128   65   69 1    
   129   65  131 1    
   130   66   67 am   BACKBONE|DICT|INTERRES
   131   66   68 2    
   132   67  132 1    
   133   67  133 1    
   134   69   70 1    
   135   69  134 1    
   136   69  135 1    
   137   70   71 1    
   138   71  136 1    
   139   71  137 1    
@<TRIPOS>SUBSTRUCTURE
     1 UNK         1 GROUP             0       ****    0 ROOT    
