@<TRIPOS>MOLECULE
3R136
137   139    1
SMALL
USER_CHARGES


@<TRIPOS>ATOM
      1 CA         30.0884   23.8237    2.8368 C.3       0 UNK        -0.1979 
      2 C          30.4895   25.0564    2.0444 C.2       0 UNK         0.4864 
      3 O          31.1186   24.9250    0.9929 O.2       0 UNK        -0.5359 
      4 N          30.1165   26.2518    2.5244 N.am      1 UNK        -0.4318 
      5 CA         30.3236   27.5348    1.8423 C.3       1 UNK         0.0824 
      6 C6         29.8662   28.7360    2.6972 C.3       12 UNK        -0.0944 
      7 S7         30.9422   29.0377    4.1305 S.3       12 UNK        -0.2672 
      8 C8         29.8260   28.7188    5.5312 C.3       12 UNK         0.0333 
      9 C9         29.6475   27.2281    5.7693 C.ar      12 UNK        -0.0807 
     10 C10        30.7544   26.4483    6.1132 C.ar      12 UNK        -0.0894 
     11 C11        30.6290   25.0688    6.3141 C.ar      12 UNK        -0.0804 
     12 C12        29.3625   24.4862    6.2007 C.ar      12 UNK        -0.0824 
     13 C13        28.2400   25.2580    5.8797 C.ar      12 UNK        -0.0762 
     14 C14        28.3894   26.6309    5.6616 C.ar      12 UNK        -0.0782 
     15 C15        26.8671   24.6052    5.7984 C.3       12 UNK         0.0230 
     16 S16        26.3320   24.3398    4.0777 S.3       12 UNK        -0.2608 
     17 C17        25.4444   25.8911    3.7039 C.3       12 UNK        -0.0989 
     18 CA         26.0364   26.6510    2.4835 C.3       5 UNK         0.0716 
     19 N          26.0571   25.8750    1.2341 N.am      5 UNK        -0.4135 
     20 C          24.9967   25.3522    0.5977 C.2       4 UNK         0.5031 
     21 O          23.8516   25.3536    1.0518 O.2       4 UNK        -0.5229 
     22 CA         25.2180   24.7563   -0.8054 C.3       4 UNK         0.0329 
     23 CB         24.5246   25.6259   -1.8684 C.3       4 UNK        -0.2001 
     24 N          26.6218   24.6010   -1.1862 N.am      4 UNK        -0.4303 
     25 C          27.4495   23.6365   -0.7711 C.2       3 UNK         0.5044 
     26 O          27.1289   22.7632    0.0345 O.2       3 UNK        -0.5152 
     27 CA         28.8804   23.6442   -1.3438 C.3       3 UNK         0.0319 
     28 CB         28.9475   22.8861   -2.6836 C.3       3 UNK        -0.2001 
     29 N          29.4938   24.9780   -1.4426 N.am      3 UNK        -0.4354 
     30 C          29.1531   26.0198   -2.2214 C.2       2 UNK         0.4964 
     31 O          28.2438   25.9796   -3.0517 O.2       2 UNK        -0.5047 
     32 CA         29.9246   27.3393   -1.9970 C.3       2 UNK         0.0288 
     33 CB         29.1378   28.5814   -2.4716 C.3       2 UNK        -0.2113 
     34 N          30.3759   27.5086   -0.6088 N.am      2 UNK        -0.4145 
     35 C          29.5971   27.5473    0.4832 C.2       1 UNK         0.5006 
     36 O          28.3632   27.5447    0.4571 O.2       1 UNK        -0.5103 
     37 C          25.3482   28.0107    2.2297 C.2       5 UNK         0.5055 
     38 O          24.4069   28.3738    2.9383 O.2       5 UNK        -0.5220 
     39 N          25.8033   28.7116    1.1826 N.am      6 UNK        -0.4450 
     40 CA         25.1585   29.9038    0.6272 C.3       6 UNK         0.0367 
     41 CB         24.2670   29.4877   -0.5596 C.3       6 UNK        -0.1929 
     42 C          26.1921   30.9767    0.2494 C.2       6 UNK         0.5070 
     43 O          26.0449   31.6398   -0.7785 O.2       6 UNK        -0.5237 
     44 N          27.2198   31.1360    1.0879 N.am      7 UNK        -0.4739 
     45 CA         28.2917   32.1220    0.9615 C.3       7 UNK         0.0276 
     46 CB         29.2662   31.7107   -0.1672 C.3       7 UNK        -0.1927 
     47 C          28.9881   32.2548    2.3260 C.2       7 UNK         0.5013 
     48 O          28.4872   31.7202    3.3196 O.2       7 UNK        -0.5193 
     49 N          30.1454   32.9219    2.3434 N.am      8 UNK        -0.4253 
     50 CA         31.1035   32.9107    3.4442 C.3       8 UNK         0.0242 
     51 CB         31.1151   34.2800    4.1447 C.3       8 UNK        -0.2000 
     52 C          32.4659   32.5823    2.8254 C.2       8 UNK         0.4948 
     53 O          32.8816   33.2750    1.8929 O.2       8 UNK        -0.5275 
     54 N          33.1159   31.5251    3.3184 N.am      9 UNK        -0.4246 
     55 CA         34.3672   30.9748    2.8048 C.3       9 UNK         0.0261 
     56 CB         34.1068   30.2348    1.4748 C.3       9 UNK        -0.1959 
     57 C          34.9507   30.0145    3.8490 C.2       9 UNK         0.5033 
     58 O          34.2628   29.6554    4.8085 O.2       9 UNK        -0.5390 
     59 N          36.1999   29.5895    3.6303 N.am      10 UNK        -0.4215 
     60 CA         36.8402   28.5117    4.3813 C.3       10 UNK         0.0240 
     61 CB         38.3672   28.7047    4.3509 C.3       10 UNK        -0.1982 
     62 C          36.4217   27.1687    3.7634 C.2       10 UNK         0.4970 
     63 O          36.9510   26.7956    2.7146 O.2       10 UNK        -0.4916 
     64 N          35.4572   26.4919    4.3965 N.am      11 UNK        -0.4279 
     65 CA         34.9194   25.1935    3.9560 C.3       11 UNK         0.1003 
     66 C          35.8749   23.9756    4.1368 C.2       11 UNK         0.5709 
     67 N          36.9820   24.0971    4.8603 N.am      11 UNK        -0.7358 
     68 O          35.6114   22.9038    3.5968 O.2       11 UNK        -0.4999 
     69 C69        33.5103   24.9288    4.5486 C.3       12 UNK        -0.0954 
     70 S70        33.4745   24.8853    6.3738 S.3       12 UNK        -0.2268 
     71 C71        31.8179   24.1765    6.6825 C.3       12 UNK         0.0203 
     72 H72        29.8914   22.9889    2.1647 H         1 UNK         0.0888 
     73 H73        30.8823   23.5321    3.5219 H         1 UNK         0.0888 
     74 H74        29.1828   24.0030    3.4120 H         1 UNK         0.0888 
     75 H75        29.6451   26.3030    3.4169 H         1 UNK         0.3017 
     76 H76        31.3957   27.6372    1.6608 H         1 UNK         0.0873 
     77 H77        29.9080   29.6443    2.0997 H         1 UNK         0.0745 
     78 H78        28.8280   28.6282    3.0150 H         1 UNK         0.0745 
     79 H79        30.2540   29.1693    6.4277 H         1 UNK         0.0705 
     80 H80        28.8708   29.2188    5.3625 H         1 UNK         0.0705 
     81 H81        31.7153   26.9335    6.2091 H         1 UNK         0.1334 
     82 H82        29.2492   23.4236    6.3693 H         1 UNK         0.1417 
     83 H83        27.5272   27.2359    5.4196 H         1 UNK         0.1562 
     84 H84        26.1325   25.2009    6.3420 H         1 UNK         0.0748 
     85 H85        26.8859   23.6360    6.2992 H         1 UNK         0.0748 
     86 H86        25.4527   26.5351    4.5839 H         1 UNK         0.0940 
     87 H87        24.3937   25.6477    3.5411 H         1 UNK         0.0940 
     88 H88        27.0762   26.8776    2.7203 H         1 UNK         0.0703 
     89 H89        26.9430   25.8789    0.7463 H         1 UNK         0.3081 
     90 H90        24.7503   23.7695   -0.8124 H         1 UNK         0.0719 
     91 H91        23.4645   25.7537   -1.6445 H         1 UNK         0.0809 
     92 H92        24.9687   26.6204   -1.9253 H         1 UNK         0.0809 
     93 H93        24.5919   25.1722   -2.8574 H         1 UNK         0.0809 
     94 H94        26.9891   25.2527   -1.8757 H         1 UNK         0.2990 
     95 H95        29.4992   23.0969   -0.6308 H         1 UNK         0.0690 
     96 H96        29.9700   22.8324   -3.0573 H         1 UNK         0.0788 
     97 H97        28.3332   23.3552   -3.4526 H         1 UNK         0.0788 
     98 H98        28.5908   21.8618   -2.5672 H         1 UNK         0.0788 
     99 H99        30.2252   25.1346   -0.7532 H         1 UNK         0.2993 
    100 H100       30.8249   27.2649   -2.6089 H         1 UNK         0.0949 
    101 H101       28.1929   28.6958   -1.9392 H         1 UNK         0.0767 
    102 H102       29.7162   29.4936   -2.3273 H         1 UNK         0.0767 
    103 H103       28.9042   28.5151   -3.5349 H         1 UNK         0.0767 
    104 H104       31.3776   27.4782   -0.4760 H         1 UNK         0.3013 
    105 H105       26.6332   28.3744    0.6980 H         1 UNK         0.3121 
    106 H106       24.5195   30.3648    1.3830 H         1 UNK         0.0774 
    107 H107       23.7104   30.3400   -0.9512 H         1 UNK         0.0815 
    108 H108       24.8587   29.0783   -1.3789 H         1 UNK         0.0815 
    109 H109       23.5367   28.7343   -0.2636 H         1 UNK         0.0815 
    110 H110       27.2406   30.6155    1.9568 H         1 UNK         0.2987 
    111 H111       27.8502   33.0922    0.7239 H         1 UNK         0.0949 
    112 H112       28.7491   31.6048   -1.1207 H         1 UNK         0.0806 
    113 H113       30.0456   32.4572   -0.3215 H         1 UNK         0.0806 
    114 H114       29.7573   30.7614    0.0447 H         1 UNK         0.0806 
    115 H115       30.5064   33.3051    1.4795 H         1 UNK         0.3010 
    116 H116       30.8455   32.1403    4.1747 H         1 UNK         0.0829 
    117 H117       31.3796   35.0850    3.4578 H         1 UNK         0.0813 
    118 H118       30.1392   34.5119    4.5714 H         1 UNK         0.0813 
    119 H119       31.8390   34.2936    4.9603 H         1 UNK         0.0813 
    120 H120       32.7333   30.9974    4.0964 H         1 UNK         0.3038 
    121 H121       35.0777   31.7890    2.6475 H         1 UNK         0.0769 
    122 H122       33.7125   30.9057    0.7116 H         1 UNK         0.0811 
    123 H123       33.3909   29.4222    1.6055 H         1 UNK         0.0811 
    124 H124       35.0228   29.8012    1.0720 H         1 UNK         0.0811 
    125 H125       36.6858   29.9090    2.8041 H         1 UNK         0.3204 
    126 H126       36.5198   28.5429    5.4253 H         1 UNK         0.0748 
    127 H127       38.7599   28.7115    3.3332 H         1 UNK         0.0771 
    128 H128       38.6557   29.6428    4.8256 H         1 UNK         0.0771 
    129 H129       38.8715   27.9011    4.8893 H         1 UNK         0.0771 
    130 H130       35.0511   26.8746    5.2383 H         1 UNK         0.2980 
    131 H131       34.7784   25.2733    2.8763 H         1 UNK         0.0545 
    132 H132       37.5935   23.3028    4.9639 H         1 UNK         0.3459 
    133 H133       37.2031   24.9683    5.3138 H         1 UNK         0.3459 
    134 H134       33.1105   23.9895    4.1644 H         1 UNK         0.0616 
    135 H135       32.8227   25.7057    4.2109 H         1 UNK         0.0616 
    136 H136       31.7464   23.9373    7.7441 H         1 UNK         0.0634 
    137 H137       31.7449   23.2283    6.1476 H         1 UNK         0.0634 
@<TRIPOS>BOND
     1    1    2 1    
     2    1   72 1    
     3    1   73 1    
     4    1   74 1    
     5    2    3 2    
     6    2    4 am   BACKBONE|DICT|INTERRES
     7    4    5 1    
     8    4   75 1    
     9    5    6 1    
    10    5   35 1    
    11    5   76 1    
    12    6    7 1    
    13    6   77 1    
    14    6   78 1    
    15    7    8 1    
    16    8    9 1    
    17    8   79 1    
    18    8   80 1    
    19    9   10 ar   
    20    9   14 ar   
    21   10   11 ar   
    22   10   81 1    
    23   11   12 ar   
    24   11   71 1    
    25   12   13 ar   
    26   12   82 1    
    27   13   14 ar   
    28   13   15 1    
    29   14   83 1    
    30   15   16 1    
    31   15   84 1    
    32   15   85 1    
    33   16   17 1    
    34   17   18 1    
    35   17   86 1    
    36   17   87 1    
    37   18   19 1    
    38   18   37 1    
    39   18   88 1    
    40   19   20 am   BACKBONE|DICT|INTERRES
    41   19   89 1    
    42   20   21 2    
    43   20   22 1    
    44   22   23 1    
    45   22   24 1    
    46   22   90 1    
    47   23   91 1    
    48   23   92 1    
    49   23   93 1    
    50   24   25 am   BACKBONE|DICT|INTERRES
    51   24   94 1    
    52   25   26 2    
    53   25   27 1    
    54   27   28 1    
    55   27   29 1    
    56   27   95 1    
    57   28   96 1    
    58   28   97 1    
    59   28   98 1    
    60   29   30 am   BACKBONE|DICT|INTERRES
    61   29   99 1    
    62   30   31 2    
    63   30   32 1    
    64   32   33 1    
    65   32   34 1    
    66   32  100 1    
    67   33  101 1    
    68   33  102 1    
    69   33  103 1    
    70   34   35 am   BACKBONE|DICT|INTERRES
    71   34  104 1    
    72   35   36 2    
    73   37   38 2    
    74   37   39 am   BACKBONE|DICT|INTERRES
    75   39   40 1    
    76   39  105 1    
    77   40   41 1    
    78   40   42 1    
    79   40  106 1    
    80   41  107 1    
    81   41  108 1    
    82   41  109 1    
    83   42   43 2    
    84   42   44 am   BACKBONE|DICT|INTERRES
    85   44   45 1    
    86   44  110 1    
    87   45   46 1    
    88   45   47 1    
    89   45  111 1    
    90   46  112 1    
    91   46  113 1    
    92   46  114 1    
    93   47   48 2    
    94   47   49 am   BACKBONE|DICT|INTERRES
    95   49   50 1    
    96   49  115 1    
    97   50   51 1    
    98   50   52 1    
    99   50  116 1    
   100   51  117 1    
   101   51  118 1    
   102   51  119 1    
   103   52   53 2    
   104   52   54 am   BACKBONE|DICT|INTERRES
   105   54   55 1    
   106   54  120 1    
   107   55   56 1    
   108   55   57 1    
   109   55  121 1    
   110   56  122 1    
   111   56  123 1    
   112   56  124 1    
   113   57   58 2    
   114   57   59 am   BACKBONE|DICT|INTERRES
   115   59   60 1    
   116   59  125 1    
   117   60   61 1    
   118   60   62 1    
   119   60  126 1    
   120   61  127 1    
   121   61  128 1    
   122   61  129 1    
   123   62   63 2    
   124   62   64 am   BACKBONE|DICT|INTERRES
   125   64   65 1    
   126   64  130 1    
   127   65   66 1    
   128   65   69 1    
   129   65  131 1    
   130   66   67 am   BACKBONE|DICT|INTERRES
   131   66   68 2    
   132   67  132 1    
   133   67  133 1    
   134   69   70 1    
   135   69  134 1    
   136   69  135 1    
   137   70   71 1    
   138   71  136 1    
   139   71  137 1    
@<TRIPOS>SUBSTRUCTURE
     1 UNK         1 GROUP             0       ****    0 ROOT    
