@<TRIPOS>MOLECULE
3R136
137   139    1
SMALL
USER_CHARGES


@<TRIPOS>ATOM
      1 CA         29.1467   18.1199    3.1282 C.3       0 UNK        -0.1979 
      2 C          29.3447   18.8594    1.8131 C.2       0 UNK         0.4864 
      3 O          29.4709   18.2226    0.7657 O.2       0 UNK        -0.5359 
      4 N          29.3783   20.1968    1.8608 N.am      1 UNK        -0.4318 
      5 CA         29.4986   21.0702    0.6906 C.3       1 UNK         0.0824 
      6 C6         29.9654   22.4960    1.0805 C.3       12 UNK        -0.0944 
      7 S7         31.7263   22.5257    1.5519 S.3       12 UNK        -0.2672 
      8 C8         31.6563   22.4619    3.3706 C.3       12 UNK         0.0333 
      9 C9         31.2088   23.7798    3.9877 C.ar      12 UNK        -0.0807 
     10 C10        32.0526   24.8943    3.9428 C.ar      12 UNK        -0.0894 
     11 C11        31.6723   26.0943    4.5495 C.ar      12 UNK        -0.0804 
     12 C12        30.4523   26.1687    5.2238 C.ar      12 UNK        -0.0824 
     13 C13        29.5847   25.0753    5.2469 C.ar      12 UNK        -0.0762 
     14 C14        29.9692   23.8800    4.6299 C.ar      12 UNK        -0.0782 
     15 C15        28.2351   25.1888    5.9393 C.3       12 UNK         0.0230 
     16 S16        26.9779   25.9267    4.8459 S.3       12 UNK        -0.2608 
     17 C17        27.3543   27.7141    4.9497 C.3       12 UNK        -0.0989 
     18 CA         27.8839   28.3140    3.6163 C.3       5 UNK         0.0716 
     19 N          26.9240   28.0906    2.5275 N.am      5 UNK        -0.4135 
     20 C          27.1931   28.0757    1.2179 C.2       4 UNK         0.5031 
     21 O          28.3073   28.3052    0.7394 O.2       4 UNK        -0.5229 
     22 CA         25.9948   27.8490    0.2831 C.3       4 UNK         0.0329 
     23 CB         25.4606   29.1983   -0.2247 C.3       4 UNK        -0.2001 
     24 N          26.3438   27.0086   -0.8630 N.am      4 UNK        -0.4303 
     25 C          26.6608   25.7108   -0.7816 C.2       3 UNK         0.5044 
     26 O          26.6652   25.0646    0.2705 O.2       3 UNK        -0.5152 
     27 CA         27.0297   25.0190   -2.0998 C.3       3 UNK         0.0319 
     28 CB         28.4085   25.4832   -2.6073 C.3       3 UNK        -0.2001 
     29 N          27.0418   23.5783   -1.8729 N.am      3 UNK        -0.4354 
     30 C          26.9654   22.6235   -2.8050 C.2       2 UNK         0.4964 
     31 O          26.8505   22.8561   -4.0099 O.2       2 UNK        -0.5047 
     32 CA         27.0707   21.1711   -2.3012 C.3       2 UNK         0.0288 
     33 CB         27.2121   20.1514   -3.4480 C.3       2 UNK        -0.2113 
     34 N          28.2142   21.0284   -1.3954 N.am      2 UNK        -0.4145 
     35 C          28.1560   21.1263   -0.0612 C.2       1 UNK         0.5006 
     36 O          27.1099   21.3030    0.5682 O.2       1 UNK        -0.5103 
     37 C          28.2366   29.8178    3.7604 C.2       5 UNK         0.5055 
     38 O          28.1780   30.3532    4.8696 O.2       5 UNK        -0.5220 
     39 N          28.5453   30.4809    2.6352 N.am      6 UNK        -0.4450 
     40 CA         28.7049   31.9296    2.4654 C.3       6 UNK         0.0367 
     41 CB         29.1085   32.2289    1.0137 C.3       6 UNK        -0.1929 
     42 C          29.6876   32.5681    3.4622 C.2       6 UNK         0.5070 
     43 O          30.9043   32.4313    3.3090 O.2       6 UNK        -0.5237 
     44 N          29.1183   33.2114    4.4939 N.am      7 UNK        -0.4739 
     45 CA         29.7767   33.8776    5.6284 C.3       7 UNK         0.0276 
     46 CB         30.5149   35.1420    5.1402 C.3       7 UNK        -0.1927 
     47 C          30.6974   32.9640    6.4665 C.2       7 UNK         0.5013 
     48 O          31.5119   33.4785    7.2346 O.2       7 UNK        -0.5193 
     49 N          30.5805   31.6381    6.2810 N.am      8 UNK        -0.4253 
     50 CA         31.5115   30.5952    6.7302 C.3       8 UNK         0.0242 
     51 CB         31.4040   30.3905    8.2556 C.3       8 UNK        -0.2000 
     52 C          32.9648   30.8353    6.2535 C.2       8 UNK         0.4948 
     53 O          33.9047   30.4850    6.9703 O.2       8 UNK        -0.5275 
     54 N          33.1225   31.4463    5.0698 N.am      9 UNK        -0.4246 
     55 CA         34.3975   31.8788    4.5063 C.3       9 UNK         0.0261 
     56 CB         34.5229   33.4090    4.6536 C.3       9 UNK        -0.1959 
     57 C          34.4998   31.3874    3.0577 C.2       9 UNK         0.5033 
     58 O          34.9294   30.2540    2.8362 O.2       9 UNK        -0.5390 
     59 N          34.1026   32.2259    2.0909 N.am      10 UNK        -0.4215 
     60 CA         34.1415   31.9510    0.6495 C.3       10 UNK         0.0240 
     61 CB         34.2066   33.2910   -0.1081 C.3       10 UNK        -0.1982 
     62 C          32.9611   31.0679    0.1959 C.2       10 UNK         0.4970 
     63 O          32.2197   31.4446   -0.7135 O.2       10 UNK        -0.4916 
     64 N          32.7960   29.9270    0.8703 N.am      11 UNK        -0.4279 
     65 CA         31.6946   28.9702    0.7149 C.3       11 UNK         0.1003 
     66 C          31.6248   28.3154   -0.6898 C.2       11 UNK         0.5709 
     67 N          30.4345   27.9274   -1.1225 N.am      11 UNK        -0.7358 
     68 O          32.6332   28.1214   -1.3673 O.2       11 UNK        -0.4999 
     69 C69        31.7326   27.8934    1.8270 C.3       12 UNK        -0.0954 
     70 S70        31.7427   28.6335    3.4931 S.3       12 UNK        -0.2268 
     71 C71        32.5569   27.3263    4.4597 C.3       12 UNK         0.0203 
     72 H72        29.0650   18.8037    3.9729 H         1 UNK         0.0888 
     73 H73        28.2376   17.5204    3.0880 H         1 UNK         0.0888 
     74 H74        29.9878   17.4522    3.3133 H         1 UNK         0.0888 
     75 H75        29.2193   20.6646    2.7400 H         1 UNK         0.3017 
     76 H76        30.2441   20.6368    0.0194 H         1 UNK         0.0873 
     77 H77        29.8594   23.1806    0.2361 H         1 UNK         0.0745 
     78 H78        29.3488   22.9127    1.8791 H         1 UNK         0.0745 
     79 H79        31.0121   21.6410    3.6864 H         1 UNK         0.0705 
     80 H80        32.6522   22.2210    3.7451 H         1 UNK         0.0705 
     81 H81        33.0020   24.8256    3.4292 H         1 UNK         0.1334 
     82 H82        30.1698   27.0954    5.7014 H         1 UNK         0.1417 
     83 H83        29.3053   23.0269    4.6576 H         1 UNK         0.1562 
     84 H84        28.3236   25.7715    6.8575 H         1 UNK         0.0748 
     85 H85        27.8907   24.1996    6.2448 H         1 UNK         0.0748 
     86 H86        28.0603   27.8889    5.7621 H         1 UNK         0.0940 
     87 H87        26.4383   28.2252    5.2526 H         1 UNK         0.0940 
     88 H88        28.8105   27.7964    3.3605 H         1 UNK         0.0703 
     89 H89        25.9748   27.9155    2.8228 H         1 UNK         0.3081 
     90 H90        25.2005   27.3460    0.8392 H         1 UNK         0.0719 
     91 H91        25.1653   29.8408    0.6061 H         1 UNK         0.0809 
     92 H92        26.2126   29.7388   -0.8015 H         1 UNK         0.0809 
     93 H93        24.5824   29.0661   -0.8571 H         1 UNK         0.0809 
     94 H94        26.3954   27.4679   -1.7605 H         1 UNK         0.2990 
     95 H95        26.2625   25.2568   -2.8397 H         1 UNK         0.0690 
     96 H96        28.6809   24.9865   -3.5386 H         1 UNK         0.0788 
     97 H97        29.1929   25.2777   -1.8773 H         1 UNK         0.0788 
     98 H98        28.4130   26.5552   -2.8057 H         1 UNK         0.0788 
     99 H99        27.0636   23.3206   -0.8918 H         1 UNK         0.2993 
    100 H100       26.1422   20.9478   -1.7708 H         1 UNK         0.0949 
    101 H101       28.1051   20.3362   -4.0466 H         1 UNK         0.0767 
    102 H102       27.2699   19.1320   -3.0654 H         1 UNK         0.0767 
    103 H103       26.3530   20.1948   -4.1189 H         1 UNK         0.0767 
    104 H104       29.1169   20.9191   -1.8364 H         1 UNK         0.3013 
    105 H105       28.5954   29.9213    1.7894 H         1 UNK         0.3121 
    106 H106       27.7204   32.3740    2.6244 H         1 UNK         0.0774 
    107 H107       30.0746   31.7913    0.7699 H         1 UNK         0.0815 
    108 H108       28.3757   31.8425    0.3051 H         1 UNK         0.0815 
    109 H109       29.1898   33.3033    0.8449 H         1 UNK         0.0815 
    110 H110       28.1082   33.1976    4.5427 H         1 UNK         0.2987 
    111 H111       28.9803   34.1957    6.3030 H         1 UNK         0.0949 
    112 H112       29.8495   35.7981    4.5791 H         1 UNK         0.0806 
    113 H113       30.9041   35.7215    5.9783 H         1 UNK         0.0806 
    114 H114       31.3595   34.8928    4.4975 H         1 UNK         0.0806 
    115 H115       29.8402   31.3233    5.6608 H         1 UNK         0.3010 
    116 H116       31.1826   29.6719    6.2526 H         1 UNK         0.0829 
    117 H117       31.7696   31.2578    8.8061 H         1 UNK         0.0813 
    118 H118       30.3731   30.2095    8.5596 H         1 UNK         0.0813 
    119 H119       31.9911   29.5295    8.5775 H         1 UNK         0.0813 
    120 H120       32.2976   31.6660    4.5155 H         1 UNK         0.3038 
    121 H121       35.2290   31.4200    5.0452 H         1 UNK         0.0769 
    122 H122       34.5789   33.6918    5.7051 H         1 UNK         0.0811 
    123 H123       33.6724   33.9378    4.2223 H         1 UNK         0.0811 
    124 H124       35.4292   33.7799    4.1727 H         1 UNK         0.0811 
    125 H125       33.6932   33.1068    2.3665 H         1 UNK         0.3204 
    126 H126       35.0565   31.3992    0.4235 H         1 UNK         0.0748 
    127 H127       33.3153   33.8959    0.0645 H         1 UNK         0.0771 
    128 H128       35.0745   33.8769    0.1953 H         1 UNK         0.0771 
    129 H129       34.2887   33.1291   -1.1838 H         1 UNK         0.0771 
    130 H130       33.4621   29.7188    1.6068 H         1 UNK         0.2980 
    131 H131       30.7761   29.5437    0.8441 H         1 UNK         0.0545 
    132 H132       30.3575   27.4932   -2.0267 H         1 UNK         0.3459 
    133 H133       29.6119   28.0545   -0.5362 H         1 UNK         0.3459 
    134 H134       32.6139   27.2599    1.7115 H         1 UNK         0.0616 
    135 H135       30.8644   27.2349    1.7574 H         1 UNK         0.0616 
    136 H136       32.7609   27.6993    5.4641 H         1 UNK         0.0634 
    137 H137       33.5244   27.0921    4.0129 H         1 UNK         0.0634 
@<TRIPOS>BOND
     1    1    2 1    
     2    1   72 1    
     3    1   73 1    
     4    1   74 1    
     5    2    3 2    
     6    2    4 am   BACKBONE|DICT|INTERRES
     7    4    5 1    
     8    4   75 1    
     9    5    6 1    
    10    5   35 1    
    11    5   76 1    
    12    6    7 1    
    13    6   77 1    
    14    6   78 1    
    15    7    8 1    
    16    8    9 1    
    17    8   79 1    
    18    8   80 1    
    19    9   10 ar   
    20    9   14 ar   
    21   10   11 ar   
    22   10   81 1    
    23   11   12 ar   
    24   11   71 1    
    25   12   13 ar   
    26   12   82 1    
    27   13   14 ar   
    28   13   15 1    
    29   14   83 1    
    30   15   16 1    
    31   15   84 1    
    32   15   85 1    
    33   16   17 1    
    34   17   18 1    
    35   17   86 1    
    36   17   87 1    
    37   18   19 1    
    38   18   37 1    
    39   18   88 1    
    40   19   20 am   BACKBONE|DICT|INTERRES
    41   19   89 1    
    42   20   21 2    
    43   20   22 1    
    44   22   23 1    
    45   22   24 1    
    46   22   90 1    
    47   23   91 1    
    48   23   92 1    
    49   23   93 1    
    50   24   25 am   BACKBONE|DICT|INTERRES
    51   24   94 1    
    52   25   26 2    
    53   25   27 1    
    54   27   28 1    
    55   27   29 1    
    56   27   95 1    
    57   28   96 1    
    58   28   97 1    
    59   28   98 1    
    60   29   30 am   BACKBONE|DICT|INTERRES
    61   29   99 1    
    62   30   31 2    
    63   30   32 1    
    64   32   33 1    
    65   32   34 1    
    66   32  100 1    
    67   33  101 1    
    68   33  102 1    
    69   33  103 1    
    70   34   35 am   BACKBONE|DICT|INTERRES
    71   34  104 1    
    72   35   36 2    
    73   37   38 2    
    74   37   39 am   BACKBONE|DICT|INTERRES
    75   39   40 1    
    76   39  105 1    
    77   40   41 1    
    78   40   42 1    
    79   40  106 1    
    80   41  107 1    
    81   41  108 1    
    82   41  109 1    
    83   42   43 2    
    84   42   44 am   BACKBONE|DICT|INTERRES
    85   44   45 1    
    86   44  110 1    
    87   45   46 1    
    88   45   47 1    
    89   45  111 1    
    90   46  112 1    
    91   46  113 1    
    92   46  114 1    
    93   47   48 2    
    94   47   49 am   BACKBONE|DICT|INTERRES
    95   49   50 1    
    96   49  115 1    
    97   50   51 1    
    98   50   52 1    
    99   50  116 1    
   100   51  117 1    
   101   51  118 1    
   102   51  119 1    
   103   52   53 2    
   104   52   54 am   BACKBONE|DICT|INTERRES
   105   54   55 1    
   106   54  120 1    
   107   55   56 1    
   108   55   57 1    
   109   55  121 1    
   110   56  122 1    
   111   56  123 1    
   112   56  124 1    
   113   57   58 2    
   114   57   59 am   BACKBONE|DICT|INTERRES
   115   59   60 1    
   116   59  125 1    
   117   60   61 1    
   118   60   62 1    
   119   60  126 1    
   120   61  127 1    
   121   61  128 1    
   122   61  129 1    
   123   62   63 2    
   124   62   64 am   BACKBONE|DICT|INTERRES
   125   64   65 1    
   126   64  130 1    
   127   65   66 1    
   128   65   69 1    
   129   65  131 1    
   130   66   67 am   BACKBONE|DICT|INTERRES
   131   66   68 2    
   132   67  132 1    
   133   67  133 1    
   134   69   70 1    
   135   69  134 1    
   136   69  135 1    
   137   70   71 1    
   138   71  136 1    
   139   71  137 1    
@<TRIPOS>SUBSTRUCTURE
     1 UNK         1 GROUP             0       ****    0 ROOT    
