@<TRIPOS>MOLECULE
3R136
137   139    1
SMALL
USER_CHARGES


@<TRIPOS>ATOM
      1 CA         30.2332   21.0312   -4.0076 C.3       0 UNK        -0.1979 
      2 C          29.7971   21.8006   -2.7700 C.2       0 UNK         0.4864 
      3 O          29.9015   23.0273   -2.7419 O.2       0 UNK        -0.5359 
      4 N          29.2936   21.0959   -1.7478 N.am      1 UNK        -0.4318 
      5 CA         28.8259   21.6467   -0.4694 C.3       1 UNK         0.0824 
      6 C6         28.9286   20.5781    0.6522 C.3       12 UNK        -0.0944 
      7 S7         29.0403   21.2882    2.3310 S.3       12 UNK        -0.2672 
      8 C8         30.8382   21.3208    2.6337 C.3       12 UNK         0.0333 
      9 C9         31.3747   22.7442    2.6221 C.ar      12 UNK        -0.0807 
     10 C10        31.5514   23.4372    3.8250 C.ar      12 UNK        -0.0894 
     11 C11        32.0474   24.7441    3.8222 C.ar      12 UNK        -0.0804 
     12 C12        32.3608   25.3566    2.6072 C.ar      12 UNK        -0.0824 
     13 C13        32.1635   24.6874    1.3977 C.ar      12 UNK        -0.0762 
     14 C14        31.6929   23.3713    1.4127 C.ar      12 UNK        -0.0782 
     15 C15        32.4583   25.3846    0.0772 C.3       12 UNK         0.0230 
     16 S16        30.9534   26.0861   -0.6784 S.3       12 UNK        -0.2608 
     17 C17        30.6655   27.5886    0.3241 C.3       12 UNK        -0.0989 
     18 CA         29.1661   27.8042    0.6708 C.3       5 UNK         0.0716 
     19 N          28.5679   26.6584    1.3658 N.am      5 UNK        -0.4135 
     20 C          28.8173   26.2550    2.6223 C.2       4 UNK         0.5031 
     21 O          29.5731   26.8493    3.3921 O.2       4 UNK        -0.5229 
     22 CA         28.0815   24.9852    3.1047 C.3       4 UNK         0.0329 
     23 CB         27.9543   24.9163    4.6407 C.3       4 UNK        -0.2001 
     24 N          26.7743   24.7735    2.4659 N.am      4 UNK        -0.4303 
     25 C          25.7380   25.6277    2.4465 C.2       3 UNK         0.5044 
     26 O          25.7281   26.7053    3.0417 O.2       3 UNK        -0.5152 
     27 CA         24.5421   25.2335    1.5535 C.3       3 UNK         0.0319 
     28 CB         23.6283   26.4339    1.2262 C.3       3 UNK        -0.2001 
     29 N          24.9430   24.5488    0.3147 N.am      3 UNK        -0.4354 
     30 C          25.8060   24.9926   -0.6124 C.2       2 UNK         0.4964 
     31 O          26.4141   26.0621   -0.5374 O.2       2 UNK        -0.5047 
     32 CA         26.0968   24.0416   -1.7828 C.3       2 UNK         0.0288 
     33 CB         26.2777   24.8043   -3.1071 C.3       2 UNK        -0.2113 
     34 N          27.3062   23.2659   -1.5140 N.am      2 UNK        -0.4145 
     35 C          27.4255   22.2904   -0.6040 C.2       1 UNK         0.5006 
     36 O          26.4844   21.8979    0.0890 O.2       1 UNK        -0.5103 
     37 C          28.9025   29.1455    1.3990 C.2       5 UNK         0.5055 
     38 O          29.7411   30.0462    1.3450 O.2       5 UNK        -0.5220 
     39 N          27.7345   29.2605    2.0543 N.am      6 UNK        -0.4450 
     40 CA         27.3335   30.3468    2.9609 C.3       6 UNK         0.0367 
     41 CB         26.0412   29.9341    3.6867 C.3       6 UNK        -0.1929 
     42 C          27.1926   31.7540    2.3434 C.2       6 UNK         0.5070 
     43 O          26.8634   32.6937    3.0687 O.2       6 UNK        -0.5237 
     44 N          27.4611   31.9027    1.0397 N.am      7 UNK        -0.4739 
     45 CA         27.6068   33.1914    0.3552 C.3       7 UNK         0.0276 
     46 CB         27.6721   32.9471   -1.1611 C.3       7 UNK        -0.1927 
     47 C          28.8375   33.9947    0.8271 C.2       7 UNK         0.5013 
     48 O          28.8686   35.2111    0.6348 O.2       7 UNK        -0.5193 
     49 N          29.8139   33.3139    1.4394 N.am      8 UNK        -0.4253 
     50 CA         30.9851   33.8898    2.0915 C.3       8 UNK         0.0242 
     51 CB         32.1828   33.8185    1.1273 C.3       8 UNK        -0.2000 
     52 C          31.2644   33.0999    3.3768 C.2       8 UNK         0.4948 
     53 O          30.7103   32.0143    3.5684 O.2       8 UNK        -0.5275 
     54 N          32.1657   33.6155    4.2223 N.am      9 UNK        -0.4246 
     55 CA         32.6615   32.9425    5.4306 C.3       9 UNK         0.0261 
     56 CB         33.2243   34.0000    6.3990 C.3       9 UNK        -0.1959 
     57 C          33.6914   31.8440    5.0874 C.2       9 UNK         0.5033 
     58 O          34.8159   31.8677    5.5913 O.2       9 UNK        -0.5390 
     59 N          33.2923   30.9119    4.2126 N.am      10 UNK        -0.4215 
     60 CA         34.1347   29.8950    3.5753 C.3       10 UNK         0.0240 
     61 CB         33.2882   29.1368    2.5427 C.3       10 UNK        -0.1982 
     62 C          34.8266   28.9165    4.5419 C.2       10 UNK         0.4970 
     63 O          35.9227   28.4489    4.2304 O.2       10 UNK        -0.4916 
     64 N          34.1917   28.6481    5.6880 N.am      11 UNK        -0.4279 
     65 CA         34.7441   27.8645    6.8054 C.3       11 UNK         0.1003 
     66 C          34.9984   28.7393    8.0695 C.2       11 UNK         0.5709 
     67 N          35.0292   30.0644    7.9715 N.am      11 UNK        -0.7358 
     68 O          35.1916   28.2128    9.1630 O.2       11 UNK        -0.4999 
     69 C69        33.8824   26.6061    7.1080 C.3       12 UNK        -0.0954 
     70 S70        33.9173   25.3979    5.7409 S.3       12 UNK        -0.2268 
     71 C71        32.2152   25.5182    5.1202 C.3       12 UNK         0.0203 
     72 H72        31.2897   21.2092   -4.2058 H         1 UNK         0.0888 
     73 H73        30.0857   19.9574   -3.8938 H         1 UNK         0.0888 
     74 H74        29.6629   21.3624   -4.8750 H         1 UNK         0.0888 
     75 H75        29.1968   20.0951   -1.8478 H         1 UNK         0.3017 
     76 H76        29.4949   22.4661   -0.2066 H         1 UNK         0.0873 
     77 H77        29.8043   19.9474    0.4927 H         1 UNK         0.0745 
     78 H78        28.0807   19.8913    0.6187 H         1 UNK         0.0745 
     79 H79        31.3746   20.7169    1.9013 H         1 UNK         0.0705 
     80 H80        31.0335   20.8563    3.6015 H         1 UNK         0.0705 
     81 H81        31.2998   22.9619    4.7633 H         1 UNK         0.1334 
     82 H82        32.7400   26.3662    2.6085 H         1 UNK         0.1417 
     83 H83        31.5684   22.8411    0.4794 H         1 UNK         0.1562 
     84 H84        32.8970   24.6694   -0.6203 H         1 UNK         0.0748 
     85 H85        33.2020   26.1718    0.2112 H         1 UNK         0.0748 
     86 H86        31.0557   28.4369   -0.2411 H         1 UNK         0.0940 
     87 H87        31.2520   27.5420    1.2396 H         1 UNK         0.0940 
     88 H88        28.6258   27.8840   -0.2737 H         1 UNK         0.0703 
     89 H89        27.8788   26.1535    0.8183 H         1 UNK         0.3081 
     90 H90        28.7114   24.1536    2.7907 H         1 UNK         0.0719 
     91 H91        27.4673   23.9941    4.9569 H         1 UNK         0.0809 
     92 H92        27.3803   25.7552    5.0356 H         1 UNK         0.0809 
     93 H93        28.9360   24.9408    5.1152 H         1 UNK         0.0809 
     94 H94        26.6784   23.9150    1.9397 H         1 UNK         0.2990 
     95 H95        23.9565   24.5161    2.1302 H         1 UNK         0.0690 
     96 H96        22.7777   26.1305    0.6159 H         1 UNK         0.0788 
     97 H97        24.1660   27.2152    0.6876 H         1 UNK         0.0788 
     98 H98        23.2281   26.8826    2.1363 H         1 UNK         0.0788 
     99 H99        24.5635   23.6186    0.1923 H         1 UNK         0.2993 
    100 H100       25.2556   23.3546   -1.8989 H         1 UNK         0.0949 
    101 H101       27.1391   25.4733   -3.0762 H         1 UNK         0.0767 
    102 H102       26.4188   24.1181   -3.9424 H         1 UNK         0.0767 
    103 H103       25.3996   25.4118   -3.3303 H         1 UNK         0.0767 
    104 H104       28.1407   23.5133   -2.0395 H         1 UNK         0.3013 
    105 H105       27.1156   28.4598    2.0403 H         1 UNK         0.3121 
    106 H106       28.1226   30.4336    3.7110 H         1 UNK         0.0774 
    107 H107       25.7063   30.7070    4.3797 H         1 UNK         0.0815 
    108 H108       25.2272   29.7481    2.9851 H         1 UNK         0.0815 
    109 H109       26.1922   29.0288    4.2746 H         1 UNK         0.0815 
    110 H110       27.7548   31.0820    0.5299 H         1 UNK         0.2987 
    111 H111       26.7219   33.7937    0.5719 H         1 UNK         0.0949 
    112 H112       26.7757   32.4422   -1.5216 H         1 UNK         0.0806 
    113 H113       27.7519   33.8896   -1.7048 H         1 UNK         0.0806 
    114 H114       28.5354   32.3391   -1.4349 H         1 UNK         0.0806 
    115 H115       29.6928   32.3179    1.6020 H         1 UNK         0.3010 
    116 H116       30.7897   34.9285    2.3667 H         1 UNK         0.0829 
    117 H117       31.9793   34.3620    0.2045 H         1 UNK         0.0813 
    118 H118       33.0770   34.2590    1.5695 H         1 UNK         0.0813 
    119 H119       32.4224   32.7878    0.8612 H         1 UNK         0.0813 
    120 H120       32.6074   34.4928    3.9855 H         1 UNK         0.3038 
    121 H121       31.8232   32.4515    5.9298 H         1 UNK         0.0769 
    122 H122       34.0761   34.5291    5.9699 H         1 UNK         0.0811 
    123 H123       33.5617   33.5386    7.3283 H         1 UNK         0.0811 
    124 H124       32.4678   34.7388    6.6636 H         1 UNK         0.0811 
    125 H125       32.3374   30.9945    3.8704 H         1 UNK         0.3204 
    126 H126       34.9256   30.4253    3.0409 H         1 UNK         0.0748 
    127 H127       33.8798   28.3774    2.0298 H         1 UNK         0.0771 
    128 H128       32.4391   28.6418    3.0157 H         1 UNK         0.0771 
    129 H129       32.8950   29.8094    1.7796 H         1 UNK         0.0771 
    130 H130       33.3044   29.0956    5.8624 H         1 UNK         0.2980 
    131 H131       35.7397   27.5071    6.5376 H         1 UNK         0.0545 
    132 H132       34.9492   30.5327    7.0755 H         1 UNK         0.3459 
    133 H133       35.2031   30.6075    8.8019 H         1 UNK         0.3459 
    134 H134       32.8537   26.8888    7.3375 H         1 UNK         0.0616 
    135 H135       34.2564   26.0837    7.9900 H         1 UNK         0.0616 
    136 H136       31.5245   25.1465    5.8785 H         1 UNK         0.0634 
    137 H137       31.9614   26.5671    4.9570 H         1 UNK         0.0634 
@<TRIPOS>BOND
     1    1    2 1    
     2    1   72 1    
     3    1   73 1    
     4    1   74 1    
     5    2    3 2    
     6    2    4 am   BACKBONE|DICT|INTERRES
     7    4    5 1    
     8    4   75 1    
     9    5    6 1    
    10    5   35 1    
    11    5   76 1    
    12    6    7 1    
    13    6   77 1    
    14    6   78 1    
    15    7    8 1    
    16    8    9 1    
    17    8   79 1    
    18    8   80 1    
    19    9   10 ar   
    20    9   14 ar   
    21   10   11 ar   
    22   10   81 1    
    23   11   12 ar   
    24   11   71 1    
    25   12   13 ar   
    26   12   82 1    
    27   13   14 ar   
    28   13   15 1    
    29   14   83 1    
    30   15   16 1    
    31   15   84 1    
    32   15   85 1    
    33   16   17 1    
    34   17   18 1    
    35   17   86 1    
    36   17   87 1    
    37   18   19 1    
    38   18   37 1    
    39   18   88 1    
    40   19   20 am   BACKBONE|DICT|INTERRES
    41   19   89 1    
    42   20   21 2    
    43   20   22 1    
    44   22   23 1    
    45   22   24 1    
    46   22   90 1    
    47   23   91 1    
    48   23   92 1    
    49   23   93 1    
    50   24   25 am   BACKBONE|DICT|INTERRES
    51   24   94 1    
    52   25   26 2    
    53   25   27 1    
    54   27   28 1    
    55   27   29 1    
    56   27   95 1    
    57   28   96 1    
    58   28   97 1    
    59   28   98 1    
    60   29   30 am   BACKBONE|DICT|INTERRES
    61   29   99 1    
    62   30   31 2    
    63   30   32 1    
    64   32   33 1    
    65   32   34 1    
    66   32  100 1    
    67   33  101 1    
    68   33  102 1    
    69   33  103 1    
    70   34   35 am   BACKBONE|DICT|INTERRES
    71   34  104 1    
    72   35   36 2    
    73   37   38 2    
    74   37   39 am   BACKBONE|DICT|INTERRES
    75   39   40 1    
    76   39  105 1    
    77   40   41 1    
    78   40   42 1    
    79   40  106 1    
    80   41  107 1    
    81   41  108 1    
    82   41  109 1    
    83   42   43 2    
    84   42   44 am   BACKBONE|DICT|INTERRES
    85   44   45 1    
    86   44  110 1    
    87   45   46 1    
    88   45   47 1    
    89   45  111 1    
    90   46  112 1    
    91   46  113 1    
    92   46  114 1    
    93   47   48 2    
    94   47   49 am   BACKBONE|DICT|INTERRES
    95   49   50 1    
    96   49  115 1    
    97   50   51 1    
    98   50   52 1    
    99   50  116 1    
   100   51  117 1    
   101   51  118 1    
   102   51  119 1    
   103   52   53 2    
   104   52   54 am   BACKBONE|DICT|INTERRES
   105   54   55 1    
   106   54  120 1    
   107   55   56 1    
   108   55   57 1    
   109   55  121 1    
   110   56  122 1    
   111   56  123 1    
   112   56  124 1    
   113   57   58 2    
   114   57   59 am   BACKBONE|DICT|INTERRES
   115   59   60 1    
   116   59  125 1    
   117   60   61 1    
   118   60   62 1    
   119   60  126 1    
   120   61  127 1    
   121   61  128 1    
   122   61  129 1    
   123   62   63 2    
   124   62   64 am   BACKBONE|DICT|INTERRES
   125   64   65 1    
   126   64  130 1    
   127   65   66 1    
   128   65   69 1    
   129   65  131 1    
   130   66   67 am   BACKBONE|DICT|INTERRES
   131   66   68 2    
   132   67  132 1    
   133   67  133 1    
   134   69   70 1    
   135   69  134 1    
   136   69  135 1    
   137   70   71 1    
   138   71  136 1    
   139   71  137 1    
@<TRIPOS>SUBSTRUCTURE
     1 UNK         1 GROUP             0       ****    0 ROOT    
