@<TRIPOS>MOLECULE
3R136
137   139    1
SMALL
USER_CHARGES


@<TRIPOS>ATOM
      1 CA         28.4250   25.1770   -2.7218 C.3       0 UNK        -0.1979 
      2 C          28.4452   24.5421   -1.3407 C.2       0 UNK         0.4864 
      3 O          28.0399   25.1854   -0.3704 O.2       0 UNK        -0.5359 
      4 N          28.8945   23.2806   -1.2485 N.am      1 UNK        -0.4318 
      5 CA         29.0595   22.5114   -0.0053 C.3       1 UNK         0.0824 
      6 C6         29.6620   21.1025   -0.2432 C.3       12 UNK        -0.0944 
      7 S7         31.1688   21.0975   -1.2698 S.3       12 UNK        -0.2672 
      8 C8         32.4835   21.2029   -0.0107 C.3       12 UNK         0.0333 
      9 C9         32.5958   22.5964    0.5946 C.ar      12 UNK        -0.0807 
     10 C10        32.5293   22.7796    1.9803 C.ar      12 UNK        -0.0894 
     11 C11        32.6529   24.0594    2.5327 C.ar      12 UNK        -0.0804 
     12 C12        32.8335   25.1587    1.6879 C.ar      12 UNK        -0.0824 
     13 C13        32.9034   24.9876    0.3040 C.ar      12 UNK        -0.0762 
     14 C14        32.7905   23.7047   -0.2353 C.ar      12 UNK        -0.0782 
     15 C15        33.1116   26.1795   -0.6144 C.3       12 UNK         0.0230 
     16 S16        31.5271   26.9365   -1.0838 S.3       12 UNK        -0.2608 
     17 C17        31.3234   28.1978    0.2171 C.3       12 UNK        -0.0989 
     18 CA         29.8607   28.2958    0.7278 C.3       5 UNK         0.0716 
     19 N          29.3935   27.0784    1.4066 N.am      5 UNK        -0.4135 
     20 C          29.7414   26.6477    2.6299 C.2       4 UNK         0.5031 
     21 O          30.6505   27.1428    3.2939 O.2       4 UNK        -0.5229 
     22 CA         28.9020   25.5076    3.2488 C.3       4 UNK         0.0329 
     23 CB         28.7882   25.6406    4.7837 C.3       4 UNK        -0.2001 
     24 N          27.5621   25.3590    2.6637 N.am      4 UNK        -0.4303 
     25 C          26.5992   26.2918    2.5614 C.2       3 UNK         0.5044 
     26 O          26.7153   27.4344    3.0042 O.2       3 UNK        -0.5152 
     27 CA         25.3237   25.9246    1.7798 C.3       3 UNK         0.0319 
     28 CB         25.0053   26.9976    0.7224 C.3       3 UNK        -0.2001 
     29 N          25.4643   24.6359    1.1008 N.am      3 UNK        -0.4354 
     30 C          24.8678   23.4943    1.4693 C.2       2 UNK         0.4964 
     31 O          24.0450   23.4117    2.3814 O.2       2 UNK        -0.5047 
     32 CA         25.2704   22.2172    0.7063 C.3       2 UNK         0.0288 
     33 CB         24.2482   21.9085   -0.3997 C.3       2 UNK        -0.2113 
     34 N          26.6128   22.2742    0.1167 N.am      2 UNK        -0.4145 
     35 C          27.7575   22.3783    0.8100 C.2       1 UNK         0.5006 
     36 O          27.8081   22.4152    2.0395 O.2       1 UNK        -0.5103 
     37 C          29.6197   29.5908    1.5472 C.2       5 UNK         0.5055 
     38 O          30.3234   30.5794    1.3285 O.2       5 UNK        -0.5220 
     39 N          28.6238   29.6015    2.4514 N.am      6 UNK        -0.4450 
     40 CA         28.3692   30.6829    3.4146 C.3       6 UNK         0.0367 
     41 CB         27.2596   30.2549    4.3869 C.3       6 UNK        -0.1929 
     42 C          28.0482   32.0565    2.7988 C.2       6 UNK         0.5070 
     43 O          28.2288   33.0714    3.4717 O.2       6 UNK        -0.5237 
     44 N          27.6120   32.0748    1.5320 N.am      7 UNK        -0.4739 
     45 CA         27.4321   33.2872    0.7291 C.3       7 UNK         0.0276 
     46 CB         26.6672   32.9289   -0.5553 C.3       7 UNK        -0.1927 
     47 C          28.7571   33.9989    0.3866 C.2       7 UNK         0.5013 
     48 O          28.7358   35.2052    0.1383 O.2       7 UNK        -0.5193 
     49 N          29.8713   33.2534    0.3771 N.am      8 UNK        -0.4253 
     50 CA         31.2246   33.7649    0.1716 C.3       8 UNK         0.0242 
     51 CB         31.9690   32.8712   -0.8372 C.3       8 UNK        -0.2000 
     52 C          31.9624   33.8313    1.5154 C.2       8 UNK         0.4948 
     53 O          32.3579   34.9205    1.9325 O.2       8 UNK        -0.5275 
     54 N          32.1141   32.6754    2.1734 N.am      9 UNK        -0.4246 
     55 CA         32.7577   32.4963    3.4728 C.3       9 UNK         0.0261 
     56 CB         34.2722   32.7809    3.3981 C.3       9 UNK        -0.1959 
     57 C          32.5019   31.0540    3.9194 C.2       9 UNK         0.5033 
     58 O          32.8600   30.1279    3.1887 O.2       9 UNK        -0.5390 
     59 N          31.8835   30.8886    5.0943 N.am      10 UNK        -0.4215 
     60 CA         31.5452   29.5843    5.6658 C.3       10 UNK         0.0240 
     61 CB         30.4805   29.7758    6.7597 C.3       10 UNK        -0.1982 
     62 C          32.7788   28.8686    6.2408 C.2       10 UNK         0.4970 
     63 O          33.6991   29.5350    6.7219 O.2       10 UNK        -0.4916 
     64 N          32.7430   27.5293    6.2450 N.am      11 UNK        -0.4279 
     65 CA         33.7393   26.6778    6.9237 C.3       11 UNK         0.1003 
     66 C          33.6996   26.7519    8.4801 C.2       11 UNK         0.5709 
     67 N          32.6402   27.2599    9.0998 N.am      11 UNK        -0.7358 
     68 O          34.6545   26.3440    9.1373 O.2       11 UNK        -0.4999 
     69 C69        33.6716   25.1990    6.4552 C.3       12 UNK        -0.0954 
     70 S70        34.1119   24.9864    4.7000 S.3       12 UNK        -0.2268 
     71 C71        32.5784   24.2652    4.0388 C.3       12 UNK         0.0203 
     72 H72        28.9973   26.1040   -2.7139 H         1 UNK         0.0888 
     73 H73        28.8534   24.5208   -3.4790 H         1 UNK         0.0888 
     74 H74        27.4012   25.4113   -3.0111 H         1 UNK         0.0888 
     75 H75        29.2255   22.8139   -2.0814 H         1 UNK         0.3017 
     76 H76        29.7580   23.0785    0.6136 H         1 UNK         0.0873 
     77 H77        28.9354   20.4593   -0.7442 H         1 UNK         0.0745 
     78 H78        29.8829   20.6169    0.7096 H         1 UNK         0.0745 
     79 H79        32.3123   20.4484    0.7587 H         1 UNK         0.0705 
     80 H80        33.4356   20.9510   -0.4796 H         1 UNK         0.0705 
     81 H81        32.3863   21.9261    2.6290 H         1 UNK         0.1334 
     82 H82        32.9225   26.1481    2.1154 H         1 UNK         0.1417 
     83 H83        32.8456   23.5672   -1.3068 H         1 UNK         0.1562 
     84 H84        33.6259   25.8612   -1.5225 H         1 UNK         0.0748 
     85 H85        33.7633   26.9183   -0.1455 H         1 UNK         0.0748 
     86 H86        31.6515   29.1398   -0.2258 H         1 UNK         0.0940 
     87 H87        32.0006   28.0123    1.0517 H         1 UNK         0.0940 
     88 H88        29.2174   28.4012   -0.1470 H         1 UNK         0.0703 
     89 H89        28.7040   26.5336    0.8955 H         1 UNK         0.3081 
     90 H90        29.4378   24.5835    3.0276 H         1 UNK         0.0719 
     91 H91        28.3053   26.5753    5.0711 H         1 UNK         0.0809 
     92 H92        28.2101   24.8204    5.2092 H         1 UNK         0.0809 
     93 H93        29.7664   25.6244    5.2631 H         1 UNK         0.0809 
     94 H94        27.3739   24.4437    2.2720 H         1 UNK         0.2990 
     95 H95        24.5029   25.8953    2.4988 H         1 UNK         0.0690 
     96 H96        24.1008   26.7492    0.1671 H         1 UNK         0.0788 
     97 H97        25.8194   27.1090    0.0046 H         1 UNK         0.0788 
     98 H98        24.8409   27.9717    1.1851 H         1 UNK         0.0788 
     99 H99        26.1575   24.6112    0.3602 H         1 UNK         0.2993 
    100 H100       25.2590   21.3952    1.4256 H         1 UNK         0.0949 
    101 H101       24.4685   20.9606   -0.8913 H         1 UNK         0.0767 
    102 H102       23.2402   21.8313    0.0108 H         1 UNK         0.0767 
    103 H103       24.2305   22.6881   -1.1625 H         1 UNK         0.0767 
    104 H104       26.6674   22.2609   -0.8917 H         1 UNK         0.3013 
    105 H105       28.0528   28.7668    2.5645 H         1 UNK         0.3121 
    106 H106       29.2867   30.8123    3.9892 H         1 UNK         0.0774 
    107 H107       27.0782   31.0232    5.1398 H         1 UNK         0.0815 
    108 H108       26.3175   30.0764    3.8671 H         1 UNK         0.0815 
    109 H109       27.5283   29.3408    4.9169 H         1 UNK         0.0815 
    110 H110       27.4814   31.1898    1.0639 H         1 UNK         0.2987 
    111 H111       26.8261   33.9888    1.3068 H         1 UNK         0.0949 
    112 H112       27.2205   32.2181   -1.1706 H         1 UNK         0.0806 
    113 H113       25.6934   32.4937   -0.3301 H         1 UNK         0.0806 
    114 H114       26.4900   33.8169   -1.1638 H         1 UNK         0.0806 
    115 H115       29.8044   32.2763    0.6500 H         1 UNK         0.3010 
    116 H116       31.1910   34.7756   -0.2411 H         1 UNK         0.0829 
    117 H117       31.4829   32.8927   -1.8126 H         1 UNK         0.0813 
    118 H118       32.9946   33.2146   -0.9790 H         1 UNK         0.0813 
    119 H119       32.0143   31.8308   -0.5133 H         1 UNK         0.0813 
    120 H120       31.7063   31.8261    1.7841 H         1 UNK         0.3038 
    121 H121       32.2975   33.1858    4.1835 H         1 UNK         0.0769 
    122 H122       34.7555   32.5664    4.3522 H         1 UNK         0.0811 
    123 H123       34.4777   33.8250    3.1633 H         1 UNK         0.0811 
    124 H124       34.7586   32.1652    2.6404 H         1 UNK         0.0811 
    125 H125       31.6742   31.6986    5.6595 H         1 UNK         0.3204 
    126 H126       31.1158   28.9728    4.8740 H         1 UNK         0.0748 
    127 H127       30.1431   28.8146    7.1493 H         1 UNK         0.0771 
    128 H128       30.8653   30.3534    7.6015 H         1 UNK         0.0771 
    129 H129       29.5998   30.2907    6.3767 H         1 UNK         0.0771 
    130 H130       31.9694   27.0552    5.8026 H         1 UNK         0.2980 
    131 H131       34.7232   27.0590    6.6431 H         1 UNK         0.0545 
    132 H132       31.8489   27.5939    8.5756 H         1 UNK         0.3459 
    133 H133       32.6340   27.3033   10.1067 H         1 UNK         0.3459 
    134 H134       32.6805   24.7842    6.6478 H         1 UNK         0.0616 
    135 H135       34.3702   24.5824    7.0242 H         1 UNK         0.0616 
    136 H136       31.7474   24.9285    4.2682 H         1 UNK         0.0634 
    137 H137       32.3785   23.3227    4.5509 H         1 UNK         0.0634 
@<TRIPOS>BOND
     1    1    2 1    
     2    1   72 1    
     3    1   73 1    
     4    1   74 1    
     5    2    3 2    
     6    2    4 am   BACKBONE|DICT|INTERRES
     7    4    5 1    
     8    4   75 1    
     9    5    6 1    
    10    5   35 1    
    11    5   76 1    
    12    6    7 1    
    13    6   77 1    
    14    6   78 1    
    15    7    8 1    
    16    8    9 1    
    17    8   79 1    
    18    8   80 1    
    19    9   10 ar   
    20    9   14 ar   
    21   10   11 ar   
    22   10   81 1    
    23   11   12 ar   
    24   11   71 1    
    25   12   13 ar   
    26   12   82 1    
    27   13   14 ar   
    28   13   15 1    
    29   14   83 1    
    30   15   16 1    
    31   15   84 1    
    32   15   85 1    
    33   16   17 1    
    34   17   18 1    
    35   17   86 1    
    36   17   87 1    
    37   18   19 1    
    38   18   37 1    
    39   18   88 1    
    40   19   20 am   BACKBONE|DICT|INTERRES
    41   19   89 1    
    42   20   21 2    
    43   20   22 1    
    44   22   23 1    
    45   22   24 1    
    46   22   90 1    
    47   23   91 1    
    48   23   92 1    
    49   23   93 1    
    50   24   25 am   BACKBONE|DICT|INTERRES
    51   24   94 1    
    52   25   26 2    
    53   25   27 1    
    54   27   28 1    
    55   27   29 1    
    56   27   95 1    
    57   28   96 1    
    58   28   97 1    
    59   28   98 1    
    60   29   30 am   BACKBONE|DICT|INTERRES
    61   29   99 1    
    62   30   31 2    
    63   30   32 1    
    64   32   33 1    
    65   32   34 1    
    66   32  100 1    
    67   33  101 1    
    68   33  102 1    
    69   33  103 1    
    70   34   35 am   BACKBONE|DICT|INTERRES
    71   34  104 1    
    72   35   36 2    
    73   37   38 2    
    74   37   39 am   BACKBONE|DICT|INTERRES
    75   39   40 1    
    76   39  105 1    
    77   40   41 1    
    78   40   42 1    
    79   40  106 1    
    80   41  107 1    
    81   41  108 1    
    82   41  109 1    
    83   42   43 2    
    84   42   44 am   BACKBONE|DICT|INTERRES
    85   44   45 1    
    86   44  110 1    
    87   45   46 1    
    88   45   47 1    
    89   45  111 1    
    90   46  112 1    
    91   46  113 1    
    92   46  114 1    
    93   47   48 2    
    94   47   49 am   BACKBONE|DICT|INTERRES
    95   49   50 1    
    96   49  115 1    
    97   50   51 1    
    98   50   52 1    
    99   50  116 1    
   100   51  117 1    
   101   51  118 1    
   102   51  119 1    
   103   52   53 2    
   104   52   54 am   BACKBONE|DICT|INTERRES
   105   54   55 1    
   106   54  120 1    
   107   55   56 1    
   108   55   57 1    
   109   55  121 1    
   110   56  122 1    
   111   56  123 1    
   112   56  124 1    
   113   57   58 2    
   114   57   59 am   BACKBONE|DICT|INTERRES
   115   59   60 1    
   116   59  125 1    
   117   60   61 1    
   118   60   62 1    
   119   60  126 1    
   120   61  127 1    
   121   61  128 1    
   122   61  129 1    
   123   62   63 2    
   124   62   64 am   BACKBONE|DICT|INTERRES
   125   64   65 1    
   126   64  130 1    
   127   65   66 1    
   128   65   69 1    
   129   65  131 1    
   130   66   67 am   BACKBONE|DICT|INTERRES
   131   66   68 2    
   132   67  132 1    
   133   67  133 1    
   134   69   70 1    
   135   69  134 1    
   136   69  135 1    
   137   70   71 1    
   138   71  136 1    
   139   71  137 1    
@<TRIPOS>SUBSTRUCTURE
     1 UNK         1 GROUP             0       ****    0 ROOT    
