@<TRIPOS>MOLECULE
3R136
137   139    1
SMALL
USER_CHARGES


@<TRIPOS>ATOM
      1 CA         27.1809   22.2821    0.4545 C.3       0 UNK        -0.1979 
      2 C          27.8767   22.2907   -0.8981 C.2       0 UNK         0.4864 
      3 O          27.5356   21.4860   -1.7657 O.2       0 UNK        -0.5359 
      4 N          28.8518   23.1914   -1.0823 N.am      1 UNK        -0.4318 
      5 CA         29.6335   23.3428   -2.3207 C.3       1 UNK         0.0824 
      6 C6         30.9362   24.1641   -2.1165 C.3       12 UNK        -0.0944 
      7 S7         31.8905   23.6665   -0.6412 S.3       12 UNK        -0.2672 
      8 C8         31.4659   25.0394    0.4818 C.3       12 UNK         0.0333 
      9 C9         31.4987   24.6451    1.9515 C.ar      12 UNK        -0.0807 
     10 C10        32.1791   25.4463    2.8734 C.ar      12 UNK        -0.0894 
     11 C11        32.1401   25.1484    4.2383 C.ar      12 UNK        -0.0804 
     12 C12        31.4195   24.0362    4.6818 C.ar      12 UNK        -0.0824 
     13 C13        30.7361   23.2254    3.7704 C.ar      12 UNK        -0.0762 
     14 C14        30.7884   23.5282    2.4066 C.ar      12 UNK        -0.0782 
     15 C15        29.8987   22.0530    4.2626 C.3       12 UNK         0.0230 
     16 S16        28.1110   22.3725    4.0851 S.3       12 UNK        -0.2608 
     17 C17        27.9038   23.9108    5.0479 C.3       12 UNK        -0.0989 
     18 CA         27.9280   25.1748    4.1422 C.3       5 UNK         0.0716 
     19 N          26.8574   25.1968    3.1360 N.am      5 UNK        -0.4135 
     20 C          25.5424   25.3120    3.3587 C.2       4 UNK         0.5031 
     21 O          25.0430   25.4801    4.4729 O.2       4 UNK        -0.5229 
     22 CA         24.6343   25.2148    2.1157 C.3       4 UNK         0.0329 
     23 CB         23.1367   25.2065    2.4772 C.3       4 UNK        -0.2001 
     24 N          24.8757   26.2831    1.1412 N.am      4 UNK        -0.4303 
     25 C          25.9046   26.3419    0.2880 C.2       3 UNK         0.5044 
     26 O          26.8428   25.5368    0.2828 O.2       3 UNK        -0.5152 
     27 CA         25.8928   27.5028   -0.7207 C.3       3 UNK         0.0319 
     28 CB         26.6490   28.7155   -0.1586 C.3       3 UNK        -0.2001 
     29 N          26.5336   27.0793   -1.9636 N.am      3 UNK        -0.4354 
     30 C          25.9601   26.2926   -2.8858 C.2       2 UNK         0.4964 
     31 O          24.7587   26.0272   -2.9241 O.2       2 UNK        -0.5047 
     32 CA         26.9235   25.6125   -3.8614 C.3       2 UNK         0.0288 
     33 CB         27.6144   26.6298   -4.7924 C.3       2 UNK        -0.2113 
     34 N          27.8863   24.8795   -3.0450 N.am      2 UNK        -0.4145 
     35 C          28.7891   23.9777   -3.4458 C.2       1 UNK         0.5006 
     36 O          28.9704   23.6466   -4.6186 O.2       1 UNK        -0.5103 
     37 C          28.0021   26.4932    4.9392 C.2       5 UNK         0.5055 
     38 O          28.0349   26.4866    6.1717 O.2       5 UNK        -0.5220 
     39 N          28.0225   27.6047    4.1998 N.am      6 UNK        -0.4450 
     40 CA         28.1393   28.9744    4.6795 C.3       6 UNK         0.0367 
     41 CB         26.7844   29.4561    5.2343 C.3       6 UNK        -0.1929 
     42 C          28.5914   29.8322    3.4923 C.2       6 UNK         0.5070 
     43 O          28.6153   29.3386    2.3614 O.2       6 UNK        -0.5237 
     44 N          28.9275   31.1000    3.7623 N.am      7 UNK        -0.4739 
     45 CA         29.2861   32.1734    2.8193 C.3       7 UNK         0.0276 
     46 CB         28.1269   32.4763    1.8493 C.3       7 UNK        -0.1927 
     47 C          30.6038   31.9741    2.0469 C.2       7 UNK         0.5013 
     48 O          31.3698   32.9321    1.9365 O.2       7 UNK        -0.5193 
     49 N          30.8558   30.7583    1.5449 N.am      8 UNK        -0.4253 
     50 CA         32.0425   30.3283    0.7976 C.3       8 UNK         0.0242 
     51 CB         31.8835   28.8406    0.4392 C.3       8 UNK        -0.2000 
     52 C          33.3383   30.5804    1.5880 C.2       8 UNK         0.4948 
     53 O          33.6522   29.8160    2.5027 O.2       8 UNK        -0.5275 
     54 N          34.0068   31.7048    1.2821 N.am      9 UNK        -0.4246 
     55 CA         35.1428   32.2920    2.0127 C.3       9 UNK         0.0261 
     56 CB         36.4096   31.4322    1.8173 C.3       9 UNK        -0.1959 
     57 C          34.8378   32.5560    3.5052 C.2       9 UNK         0.5033 
     58 O          35.7480   32.5022    4.3353 O.2       9 UNK        -0.5390 
     59 N          33.5483   32.7575    3.8278 N.am      10 UNK        -0.4215 
     60 CA         32.9468   32.7852    5.1688 C.3       10 UNK         0.0240 
     61 CB         33.3445   34.0830    5.9025 C.3       10 UNK        -0.1982 
     62 C          33.2292   31.5222    6.0178 C.2       10 UNK         0.4970 
     63 O          33.1269   31.5909    7.2438 O.2       10 UNK        -0.4916 
     64 N          33.6078   30.4097    5.3678 N.am      11 UNK        -0.4279 
     65 CA         34.1920   29.2049    5.9778 C.3       11 UNK         0.1003 
     66 C          35.5125   29.4615    6.7722 C.2       11 UNK         0.5709 
     67 N          36.2671   30.5145    6.4746 N.am      11 UNK        -0.7358 
     68 O          35.8846   28.6825    7.6469 O.2       11 UNK        -0.4999 
     69 C69        33.1461   28.3425    6.7426 C.3       12 UNK        -0.0954 
     70 S70        31.9590   27.5543    5.6044 S.3       12 UNK        -0.2268 
     71 C71        32.8806   26.0286    5.2309 C.3       12 UNK         0.0203 
     72 H72        26.1215   22.5038    0.3310 H         1 UNK         0.0888 
     73 H73        27.2744   21.3023    0.9219 H         1 UNK         0.0888 
     74 H74        27.6047   23.0209    1.1332 H         1 UNK         0.0888 
     75 H75        29.0853   23.8264   -0.3340 H         1 UNK         0.3017 
     76 H76        29.9186   22.3420   -2.6528 H         1 UNK         0.0873 
     77 H77        30.7242   25.2339   -2.0584 H         1 UNK         0.0745 
     78 H78        31.5852   24.0439   -2.9861 H         1 UNK         0.0745 
     79 H79        30.4644   25.4121    0.2631 H         1 UNK         0.0705 
     80 H80        32.1511   25.8646    0.2834 H         1 UNK         0.0705 
     81 H81        32.7244   26.3180    2.5370 H         1 UNK         0.1334 
     82 H82        31.3772   23.8124    5.7392 H         1 UNK         0.1417 
     83 H83        30.2464   22.9094    1.7049 H         1 UNK         0.1562 
     84 H84        30.1200   21.8269    5.3070 H         1 UNK         0.0748 
     85 H85        30.1580   21.1588    3.6941 H         1 UNK         0.0748 
     86 H86        28.6889   23.9573    5.8047 H         1 UNK         0.0940 
     87 H87        26.9642   23.8532    5.5997 H         1 UNK         0.0940 
     88 H88        28.8539   25.1568    3.5702 H         1 UNK         0.0703 
     89 H89        27.1492   25.1260    2.1660 H         1 UNK         0.3081 
     90 H90        24.8570   24.2586    1.6375 H         1 UNK         0.0719 
     91 H91        22.8292   26.1400    2.9503 H         1 UNK         0.0809 
     92 H92        22.5154   25.0564    1.5940 H         1 UNK         0.0809 
     93 H93        22.9065   24.3975    3.1721 H         1 UNK         0.0809 
     94 H94        24.1774   27.0118    1.1017 H         1 UNK         0.2990 
     95 H95        24.8599   27.7915   -0.9274 H         1 UNK         0.0690 
     96 H96        26.6133   29.5599   -0.8472 H         1 UNK         0.0788 
     97 H97        27.6980   28.4826    0.0288 H         1 UNK         0.0788 
     98 H98        26.2163   29.0497    0.7855 H         1 UNK         0.0788 
     99 H99        27.5287   27.2380   -2.0218 H         1 UNK         0.2993 
    100 H100       26.3579   24.8982   -4.4634 H         1 UNK         0.0949 
    101 H101       28.2243   26.1297   -5.5447 H         1 UNK         0.0767 
    102 H102       26.8771   27.2306   -5.3266 H         1 UNK         0.0767 
    103 H103       28.2613   27.3150   -4.2438 H         1 UNK         0.0767 
    104 H104       27.7790   25.0120   -2.0467 H         1 UNK         0.3013 
    105 H105       28.0422   27.5410    3.1881 H         1 UNK         0.3121 
    106 H106       28.9057   29.0199    5.4563 H         1 UNK         0.0774 
    107 H107       26.8474   30.4798    5.6044 H         1 UNK         0.0815 
    108 H108       26.0071   29.4313    4.4694 H         1 UNK         0.0815 
    109 H109       26.4511   28.8359    6.0665 H         1 UNK         0.0815 
    110 H110       28.9009   31.3858    4.7317 H         1 UNK         0.2987 
    111 H111       29.4287   33.0634    3.4349 H         1 UNK         0.0949 
    112 H112       27.9200   31.6387    1.1821 H         1 UNK         0.0806 
    113 H113       27.2088   32.7086    2.3890 H         1 UNK         0.0806 
    114 H114       28.3599   33.3378    1.2219 H         1 UNK         0.0806 
    115 H115       30.1401   30.0531    1.7120 H         1 UNK         0.3010 
    116 H116       32.0808   30.8997   -0.1318 H         1 UNK         0.0829 
    117 H117       31.0197   28.6775   -0.2056 H         1 UNK         0.0813 
    118 H118       32.7612   28.4684   -0.0908 H         1 UNK         0.0813 
    119 H119       31.7530   28.2268    1.3313 H         1 UNK         0.0813 
    120 H120       33.6246   32.2871    0.5485 H         1 UNK         0.3038 
    121 H121       35.3287   33.2690    1.5643 H         1 UNK         0.0769 
    122 H122       37.2865   31.9223    2.2421 H         1 UNK         0.0811 
    123 H123       36.6157   31.2631    0.7605 H         1 UNK         0.0811 
    124 H124       36.3155   30.4591    2.3008 H         1 UNK         0.0811 
    125 H125       32.8806   32.8054    3.0600 H         1 UNK         0.3204 
    126 H126       31.8671   32.8072    5.0159 H         1 UNK         0.0748 
    127 H127       32.7978   34.1901    6.8402 H         1 UNK         0.0771 
    128 H128       34.4083   34.1004    6.1419 H         1 UNK         0.0771 
    129 H129       33.1222   34.9633    5.2992 H         1 UNK         0.0771 
    130 H130       33.6343   30.4151    4.3522 H         1 UNK         0.2980 
    131 H131       34.5353   28.6109    5.1305 H         1 UNK         0.0545 
    132 H132       35.9986   31.1653    5.7420 H         1 UNK         0.3459 
    133 H133       37.1223   30.6636    6.9853 H         1 UNK         0.3459 
    134 H134       33.6241   27.5520    7.3230 H         1 UNK         0.0616 
    135 H135       32.5957   28.9472    7.4640 H         1 UNK         0.0616 
    136 H136       33.0640   25.4826    6.1576 H         1 UNK         0.0634 
    137 H137       33.8601   26.2855    4.8253 H         1 UNK         0.0634 
@<TRIPOS>BOND
     1    1    2 1    
     2    1   72 1    
     3    1   73 1    
     4    1   74 1    
     5    2    3 2    
     6    2    4 am   BACKBONE|DICT|INTERRES
     7    4    5 1    
     8    4   75 1    
     9    5    6 1    
    10    5   35 1    
    11    5   76 1    
    12    6    7 1    
    13    6   77 1    
    14    6   78 1    
    15    7    8 1    
    16    8    9 1    
    17    8   79 1    
    18    8   80 1    
    19    9   10 ar   
    20    9   14 ar   
    21   10   11 ar   
    22   10   81 1    
    23   11   12 ar   
    24   11   71 1    
    25   12   13 ar   
    26   12   82 1    
    27   13   14 ar   
    28   13   15 1    
    29   14   83 1    
    30   15   16 1    
    31   15   84 1    
    32   15   85 1    
    33   16   17 1    
    34   17   18 1    
    35   17   86 1    
    36   17   87 1    
    37   18   19 1    
    38   18   37 1    
    39   18   88 1    
    40   19   20 am   BACKBONE|DICT|INTERRES
    41   19   89 1    
    42   20   21 2    
    43   20   22 1    
    44   22   23 1    
    45   22   24 1    
    46   22   90 1    
    47   23   91 1    
    48   23   92 1    
    49   23   93 1    
    50   24   25 am   BACKBONE|DICT|INTERRES
    51   24   94 1    
    52   25   26 2    
    53   25   27 1    
    54   27   28 1    
    55   27   29 1    
    56   27   95 1    
    57   28   96 1    
    58   28   97 1    
    59   28   98 1    
    60   29   30 am   BACKBONE|DICT|INTERRES
    61   29   99 1    
    62   30   31 2    
    63   30   32 1    
    64   32   33 1    
    65   32   34 1    
    66   32  100 1    
    67   33  101 1    
    68   33  102 1    
    69   33  103 1    
    70   34   35 am   BACKBONE|DICT|INTERRES
    71   34  104 1    
    72   35   36 2    
    73   37   38 2    
    74   37   39 am   BACKBONE|DICT|INTERRES
    75   39   40 1    
    76   39  105 1    
    77   40   41 1    
    78   40   42 1    
    79   40  106 1    
    80   41  107 1    
    81   41  108 1    
    82   41  109 1    
    83   42   43 2    
    84   42   44 am   BACKBONE|DICT|INTERRES
    85   44   45 1    
    86   44  110 1    
    87   45   46 1    
    88   45   47 1    
    89   45  111 1    
    90   46  112 1    
    91   46  113 1    
    92   46  114 1    
    93   47   48 2    
    94   47   49 am   BACKBONE|DICT|INTERRES
    95   49   50 1    
    96   49  115 1    
    97   50   51 1    
    98   50   52 1    
    99   50  116 1    
   100   51  117 1    
   101   51  118 1    
   102   51  119 1    
   103   52   53 2    
   104   52   54 am   BACKBONE|DICT|INTERRES
   105   54   55 1    
   106   54  120 1    
   107   55   56 1    
   108   55   57 1    
   109   55  121 1    
   110   56  122 1    
   111   56  123 1    
   112   56  124 1    
   113   57   58 2    
   114   57   59 am   BACKBONE|DICT|INTERRES
   115   59   60 1    
   116   59  125 1    
   117   60   61 1    
   118   60   62 1    
   119   60  126 1    
   120   61  127 1    
   121   61  128 1    
   122   61  129 1    
   123   62   63 2    
   124   62   64 am   BACKBONE|DICT|INTERRES
   125   64   65 1    
   126   64  130 1    
   127   65   66 1    
   128   65   69 1    
   129   65  131 1    
   130   66   67 am   BACKBONE|DICT|INTERRES
   131   66   68 2    
   132   67  132 1    
   133   67  133 1    
   134   69   70 1    
   135   69  134 1    
   136   69  135 1    
   137   70   71 1    
   138   71  136 1    
   139   71  137 1    
@<TRIPOS>SUBSTRUCTURE
     1 UNK         1 GROUP             0       ****    0 ROOT    
