@<TRIPOS>MOLECULE
3R136
137   139    1
SMALL
USER_CHARGES


@<TRIPOS>ATOM
      1 CA         29.7201   23.0623    4.8962 C.3       0 UNK        -0.1979 
      2 C          29.5434   22.2297    3.6364 C.2       0 UNK         0.4864 
      3 O          29.3345   21.0192    3.7246 O.2       0 UNK        -0.5359 
      4 N          29.6327   22.8726    2.4640 N.am      1 UNK        -0.4318 
      5 CA         29.5476   22.2394    1.1403 C.3       1 UNK         0.0824 
      6 C6         29.9279   23.2089   -0.0106 C.3       12 UNK        -0.0944 
      7 S7         31.5080   24.0843    0.2381 S.3       12 UNK        -0.2672 
      8 C8         30.9400   25.8071    0.4050 C.3       12 UNK         0.0333 
      9 C9         30.3448   26.0749    1.7796 C.ar      12 UNK        -0.0807 
     10 C10        31.1902   26.3930    2.8444 C.ar      12 UNK        -0.0894 
     11 C11        30.6700   26.6626    4.1130 C.ar      12 UNK        -0.0804 
     12 C12        29.2883   26.6194    4.3116 C.ar      12 UNK        -0.0824 
     13 C13        28.4292   26.3047    3.2544 C.ar      12 UNK        -0.0762 
     14 C14        28.9625   26.0276    1.9904 C.ar      12 UNK        -0.0782 
     15 C15        26.9267   26.2796    3.4908 C.3       12 UNK         0.0230 
     16 S16        26.1835   27.9179    3.2013 S.3       12 UNK        -0.2608 
     17 C17        25.8307   27.8641    1.4125 C.3       12 UNK        -0.0989 
     18 CA         26.9474   28.5078    0.5472 C.3       5 UNK         0.0716 
     19 N          26.9609   27.9049   -0.7871 N.am      5 UNK        -0.4135 
     20 C          27.9950   27.8479   -1.6314 C.2       4 UNK         0.5031 
     21 O          29.1038   28.3202   -1.3722 O.2       4 UNK        -0.5229 
     22 CA         27.7397   27.1418   -2.9802 C.3       4 UNK         0.0329 
     23 CB         28.9686   27.1939   -3.9074 C.3       4 UNK        -0.2001 
     24 N          27.3230   25.7414   -2.8318 N.am      4 UNK        -0.4303 
     25 C          26.1331   25.3062   -2.3923 C.2       3 UNK         0.5044 
     26 O          25.2325   26.0560   -2.0112 O.2       3 UNK        -0.5152 
     27 CA         25.9106   23.7890   -2.3332 C.3       3 UNK         0.0319 
     28 CB         26.9142   22.9630   -3.1687 C.3       3 UNK        -0.2001 
     29 N          25.9693   23.3785   -0.9344 N.am      3 UNK        -0.4354 
     30 C          25.3581   22.3127   -0.4010 C.2       2 UNK         0.4964 
     31 O          24.6018   21.5697   -1.0295 O.2       2 UNK        -0.5047 
     32 CA         25.6796   22.0268    1.0832 C.3       2 UNK         0.0288 
     33 CB         25.2257   20.6250    1.5450 C.3       2 UNK        -0.2113 
     34 N          27.1004   22.2506    1.3955 N.am      2 UNK        -0.4145 
     35 C          28.1591   21.6406    0.8323 C.2       1 UNK         0.5006 
     36 O          28.0789   20.6902    0.0524 O.2       1 UNK        -0.5103 
     37 C          26.8802   30.0492    0.4627 C.2       5 UNK         0.5055 
     38 O          25.8978   30.6581    0.8911 O.2       5 UNK        -0.5220 
     39 N          27.9192   30.6502   -0.1325 N.am      6 UNK        -0.4450 
     40 CA         28.0605   32.0949   -0.3217 C.3       6 UNK         0.0367 
     41 CB         29.1925   32.3713   -1.3245 C.3       6 UNK        -0.1929 
     42 C          28.3070   32.8442    0.9978 C.2       6 UNK         0.5070 
     43 O          27.7277   33.9109    1.2048 O.2       6 UNK        -0.5237 
     44 N          29.1478   32.2694    1.8654 N.am      7 UNK        -0.4739 
     45 CA         29.4943   32.7802    3.1880 C.3       7 UNK         0.0276 
     46 CB         30.4106   34.0155    3.0700 C.3       7 UNK        -0.1927 
     47 C          30.2073   31.6706    3.9652 C.2       7 UNK         0.5013 
     48 O          30.8755   30.8321    3.3544 O.2       7 UNK        -0.5193 
     49 N          30.1171   31.7266    5.3013 N.am      8 UNK        -0.4253 
     50 CA         30.8058   30.8140    6.2237 C.3       8 UNK         0.0242 
     51 CB         30.2949   31.0494    7.6537 C.3       8 UNK        -0.2000 
     52 C          32.3419   30.9237    6.1753 C.2       8 UNK         0.4948 
     53 O          33.0262   29.9645    6.5310 O.2       8 UNK        -0.5275 
     54 N          32.8576   32.0639    5.6899 N.am      9 UNK        -0.4246 
     55 CA         34.2781   32.3350    5.4462 C.3       9 UNK         0.0261 
     56 CB         34.4330   33.7702    4.9179 C.3       9 UNK        -0.1959 
     57 C          34.9598   31.3360    4.4913 C.2       9 UNK         0.5033 
     58 O          36.1722   31.1456    4.5959 O.2       9 UNK        -0.5390 
     59 N          34.1787   30.6752    3.6216 N.am      10 UNK        -0.4215 
     60 CA         34.6249   29.5815    2.7521 C.3       10 UNK         0.0240 
     61 CB         33.4722   29.1881    1.8137 C.3       10 UNK        -0.1982 
     62 C          35.1507   28.3465    3.5137 C.2       10 UNK         0.4970 
     63 O          35.9301   27.5834    2.9423 O.2       10 UNK        -0.4916 
     64 N          34.7363   28.1821    4.7767 N.am      11 UNK        -0.4279 
     65 CA         35.2140   27.1465    5.7032 C.3       11 UNK         0.1003 
     66 C          36.4261   27.6106    6.5645 C.2       11 UNK         0.5709 
     67 N          36.9505   28.8214    6.4023 N.am      11 UNK        -0.7358 
     68 O          36.9210   26.8453    7.3888 O.2       11 UNK        -0.4999 
     69 C69        34.0534   26.6005    6.5805 C.3       12 UNK        -0.0954 
     70 S70        32.8058   25.7075    5.5954 S.3       12 UNK        -0.2268 
     71 C71        31.6033   27.0313    5.2545 C.3       12 UNK         0.0203 
     72 H72        30.1195   22.4520    5.7058 H         1 UNK         0.0888 
     73 H73        30.4138   23.8849    4.7289 H         1 UNK         0.0888 
     74 H74        28.7638   23.4743    5.2167 H         1 UNK         0.0888 
     75 H75        29.8522   23.8605    2.4583 H         1 UNK         0.3017 
     76 H76        30.2615   21.4128    1.1356 H         1 UNK         0.0873 
     77 H77        29.1373   23.9413   -0.1799 H         1 UNK         0.0745 
     78 H78        30.0143   22.6538   -0.9471 H         1 UNK         0.0745 
     79 H79        30.2233   26.0403   -0.3830 H         1 UNK         0.0705 
     80 H80        31.7889   26.4729    0.2413 H         1 UNK         0.0705 
     81 H81        32.2598   26.4300    2.6871 H         1 UNK         0.1334 
     82 H82        28.8779   26.8412    5.2874 H         1 UNK         0.1417 
     83 H83        28.3004   25.7987    1.1674 H         1 UNK         0.1562 
     84 H84        26.7241   25.9871    4.5223 H         1 UNK         0.0748 
     85 H85        26.4481   25.5217    2.8697 H         1 UNK         0.0748 
     86 H86        24.8617   28.3317    1.2274 H         1 UNK         0.0940 
     87 H87        25.6893   26.8196    1.1311 H         1 UNK         0.0940 
     88 H88        27.9077   28.2828    1.0125 H         1 UNK         0.0703 
     89 H89        26.0937   27.4756   -1.0999 H         1 UNK         0.3081 
     90 H90        26.9314   27.6859   -3.4736 H         1 UNK         0.0719 
     91 H91        29.2847   28.2236   -4.0810 H         1 UNK         0.0809 
     92 H92        29.8191   26.6599   -3.4814 H         1 UNK         0.0809 
     93 H93        28.7507   26.7572   -4.8822 H         1 UNK         0.0809 
     94 H94        28.0046   25.0476   -3.1026 H         1 UNK         0.2990 
     95 H95        24.9058   23.6067   -2.7204 H         1 UNK         0.0690 
     96 H96        26.6353   21.9090   -3.1785 H         1 UNK         0.0788 
     97 H97        27.9293   23.0243   -2.7747 H         1 UNK         0.0788 
     98 H98        26.9328   23.2943   -4.2080 H         1 UNK         0.0788 
     99 H99        26.5218   23.9681   -0.3303 H         1 UNK         0.2993 
    100 H100       25.1143   22.7602    1.6607 H         1 UNK         0.0949 
    101 H101       25.6997   19.8323    0.9653 H         1 UNK         0.0767 
    102 H102       25.4623   20.4586    2.5959 H         1 UNK         0.0767 
    103 H103       24.1471   20.5075    1.4334 H         1 UNK         0.0767 
    104 H104       27.2941   22.9929    2.0518 H         1 UNK         0.3013 
    105 H105       28.6520   30.0540   -0.5073 H         1 UNK         0.3121 
    106 H106       27.1286   32.4723   -0.7487 H         1 UNK         0.0774 
    107 H107       29.3071   33.4424   -1.4966 H         1 UNK         0.0815 
    108 H108       30.1516   31.9938   -0.9677 H         1 UNK         0.0815 
    109 H109       28.9884   31.9087   -2.2904 H         1 UNK         0.0815 
    110 H110       29.5788   31.3813    1.6377 H         1 UNK         0.2987 
    111 H111       28.5746   33.0475    3.7131 H         1 UNK         0.0949 
    112 H112       29.9171   34.8349    2.5475 H         1 UNK         0.0806 
    113 H113       30.6939   34.3929    4.0532 H         1 UNK         0.0806 
    114 H114       31.3299   33.7831    2.5307 H         1 UNK         0.0806 
    115 H115       29.5541   32.4525    5.7223 H         1 UNK         0.3010 
    116 H116       30.5464   29.7943    5.9320 H         1 UNK         0.0829 
    117 H117       29.2194   30.8852    7.7238 H         1 UNK         0.0813 
    118 H118       30.7710   30.3627    8.3553 H         1 UNK         0.0813 
    119 H119       30.5048   32.0631    7.9972 H         1 UNK         0.0813 
    120 H120       32.2124   32.7975    5.4381 H         1 UNK         0.3038 
    121 H121       34.7918   32.2632    6.4071 H         1 UNK         0.0769 
    122 H122       35.4834   34.0126    4.7494 H         1 UNK         0.0811 
    123 H123       34.0456   34.5003    5.6287 H         1 UNK         0.0811 
    124 H124       33.9104   33.9111    3.9707 H         1 UNK         0.0811 
    125 H125       33.1871   30.8825    3.6073 H         1 UNK         0.3204 
    126 H126       35.4494   29.9586    2.1436 H         1 UNK         0.0748 
    127 H127       33.7586   28.3641    1.1587 H         1 UNK         0.0771 
    128 H128       32.5901   28.8731    2.3718 H         1 UNK         0.0771 
    129 H129       33.1786   30.0218    1.1755 H         1 UNK         0.0771 
    130 H130       34.1208   28.8732    5.1918 H         1 UNK         0.2980 
    131 H131       35.5939   26.3067    5.1187 H         1 UNK         0.0545 
    132 H132       37.7396   29.0894    6.9683 H         1 UNK         0.3459 
    133 H133       36.5834   29.4703    5.7164 H         1 UNK         0.3459 
    134 H134       34.4308   25.8921    7.3200 H         1 UNK         0.0616 
    135 H135       33.5765   27.4020    7.1468 H         1 UNK         0.0616 
    136 H136       31.0479   27.2478    6.1681 H         1 UNK         0.0634 
    137 H137       32.1185   27.9495    4.9790 H         1 UNK         0.0634 
@<TRIPOS>BOND
     1    1    2 1    
     2    1   72 1    
     3    1   73 1    
     4    1   74 1    
     5    2    3 2    
     6    2    4 am   BACKBONE|DICT|INTERRES
     7    4    5 1    
     8    4   75 1    
     9    5    6 1    
    10    5   35 1    
    11    5   76 1    
    12    6    7 1    
    13    6   77 1    
    14    6   78 1    
    15    7    8 1    
    16    8    9 1    
    17    8   79 1    
    18    8   80 1    
    19    9   10 ar   
    20    9   14 ar   
    21   10   11 ar   
    22   10   81 1    
    23   11   12 ar   
    24   11   71 1    
    25   12   13 ar   
    26   12   82 1    
    27   13   14 ar   
    28   13   15 1    
    29   14   83 1    
    30   15   16 1    
    31   15   84 1    
    32   15   85 1    
    33   16   17 1    
    34   17   18 1    
    35   17   86 1    
    36   17   87 1    
    37   18   19 1    
    38   18   37 1    
    39   18   88 1    
    40   19   20 am   BACKBONE|DICT|INTERRES
    41   19   89 1    
    42   20   21 2    
    43   20   22 1    
    44   22   23 1    
    45   22   24 1    
    46   22   90 1    
    47   23   91 1    
    48   23   92 1    
    49   23   93 1    
    50   24   25 am   BACKBONE|DICT|INTERRES
    51   24   94 1    
    52   25   26 2    
    53   25   27 1    
    54   27   28 1    
    55   27   29 1    
    56   27   95 1    
    57   28   96 1    
    58   28   97 1    
    59   28   98 1    
    60   29   30 am   BACKBONE|DICT|INTERRES
    61   29   99 1    
    62   30   31 2    
    63   30   32 1    
    64   32   33 1    
    65   32   34 1    
    66   32  100 1    
    67   33  101 1    
    68   33  102 1    
    69   33  103 1    
    70   34   35 am   BACKBONE|DICT|INTERRES
    71   34  104 1    
    72   35   36 2    
    73   37   38 2    
    74   37   39 am   BACKBONE|DICT|INTERRES
    75   39   40 1    
    76   39  105 1    
    77   40   41 1    
    78   40   42 1    
    79   40  106 1    
    80   41  107 1    
    81   41  108 1    
    82   41  109 1    
    83   42   43 2    
    84   42   44 am   BACKBONE|DICT|INTERRES
    85   44   45 1    
    86   44  110 1    
    87   45   46 1    
    88   45   47 1    
    89   45  111 1    
    90   46  112 1    
    91   46  113 1    
    92   46  114 1    
    93   47   48 2    
    94   47   49 am   BACKBONE|DICT|INTERRES
    95   49   50 1    
    96   49  115 1    
    97   50   51 1    
    98   50   52 1    
    99   50  116 1    
   100   51  117 1    
   101   51  118 1    
   102   51  119 1    
   103   52   53 2    
   104   52   54 am   BACKBONE|DICT|INTERRES
   105   54   55 1    
   106   54  120 1    
   107   55   56 1    
   108   55   57 1    
   109   55  121 1    
   110   56  122 1    
   111   56  123 1    
   112   56  124 1    
   113   57   58 2    
   114   57   59 am   BACKBONE|DICT|INTERRES
   115   59   60 1    
   116   59  125 1    
   117   60   61 1    
   118   60   62 1    
   119   60  126 1    
   120   61  127 1    
   121   61  128 1    
   122   61  129 1    
   123   62   63 2    
   124   62   64 am   BACKBONE|DICT|INTERRES
   125   64   65 1    
   126   64  130 1    
   127   65   66 1    
   128   65   69 1    
   129   65  131 1    
   130   66   67 am   BACKBONE|DICT|INTERRES
   131   66   68 2    
   132   67  132 1    
   133   67  133 1    
   134   69   70 1    
   135   69  134 1    
   136   69  135 1    
   137   70   71 1    
   138   71  136 1    
   139   71  137 1    
@<TRIPOS>SUBSTRUCTURE
     1 UNK         1 GROUP             0       ****    0 ROOT    
