@<TRIPOS>MOLECULE
3R136
137   139    1
SMALL
USER_CHARGES


@<TRIPOS>ATOM
      1 CA         28.2217   24.8884    3.7790 C.3       0 UNK        -0.1979 
      2 C          28.5415   23.5805    3.0756 C.2       0 UNK         0.4864 
      3 O          27.8462   22.5872    3.2917 O.2       0 UNK        -0.5359 
      4 N          29.5707   23.5752    2.2150 N.am      1 UNK        -0.4318 
      5 CA         29.9445   22.4294    1.3691 C.3       1 UNK         0.0824 
      6 C6         31.3602   22.5852    0.7617 C.3       12 UNK        -0.0944 
      7 S7         32.6500   22.5715    2.0537 S.3       12 UNK        -0.2672 
      8 C8         33.4858   24.1703    1.8034 C.3       12 UNK         0.0333 
      9 C9         32.5790   25.3553    2.1018 C.ar      12 UNK        -0.0807 
     10 C10        32.1316   25.5893    3.4052 C.ar      12 UNK        -0.0894 
     11 C11        31.3101   26.6840    3.6880 C.ar      12 UNK        -0.0804 
     12 C12        30.9406   27.5515    2.6551 C.ar      12 UNK        -0.0824 
     13 C13        31.3898   27.3336    1.3490 C.ar      12 UNK        -0.0762 
     14 C14        32.2084   26.2329    1.0792 C.ar      12 UNK        -0.0782 
     15 C15        31.0305   28.3134    0.2399 C.3       12 UNK         0.0230 
     16 S16        30.1938   27.5250   -1.1726 S.3       12 UNK        -0.2608 
     17 C17        28.5686   27.0899   -0.4747 C.3       12 UNK        -0.0989 
     18 CA         27.4815   28.1607   -0.7762 C.3       5 UNK         0.0716 
     19 N          26.2224   27.5566   -1.2250 N.am      5 UNK        -0.4135 
     20 C          25.2694   28.2110   -1.9079 C.2       4 UNK         0.5031 
     21 O          25.3558   29.3984   -2.2242 O.2       4 UNK        -0.5229 
     22 CA         24.0161   27.4250   -2.3419 C.3       4 UNK         0.0329 
     23 CB         24.0428   27.1719   -3.8588 C.3       4 UNK        -0.2001 
     24 N          23.8538   26.1431   -1.6546 N.am      4 UNK        -0.4303 
     25 C          23.4382   25.9968   -0.3894 C.2       3 UNK         0.5044 
     26 O          23.0985   26.9322    0.3353 O.2       3 UNK        -0.5152 
     27 CA         23.4526   24.5632    0.1738 C.3       3 UNK         0.0319 
     28 CB         22.1036   23.8711   -0.0789 C.3       3 UNK        -0.2001 
     29 N          24.5399   23.7279   -0.3574 N.am      3 UNK        -0.4354 
     30 C          25.8427   24.0065   -0.2180 C.2       2 UNK         0.4964 
     31 O          26.2685   25.0255    0.3348 O.2       2 UNK        -0.5047 
     32 CA         26.8403   23.0199   -0.8327 C.3       2 UNK         0.0288 
     33 CB         27.1194   23.3572   -2.3075 C.3       2 UNK        -0.2113 
     34 N          28.0669   23.1324   -0.0559 N.am      2 UNK        -0.4145 
     35 C          28.8948   22.1347    0.2718 C.2       1 UNK         0.5006 
     36 O          28.8352   21.0082   -0.2245 O.2       1 UNK        -0.5103 
     37 C          27.2725   29.1039    0.4262 C.2       5 UNK         0.5055 
     38 O          27.9821   30.1045    0.5327 O.2       5 UNK        -0.5220 
     39 N          26.3063   28.7693    1.2986 N.am      6 UNK        -0.4450 
     40 CA         26.0000   29.4349    2.5703 C.3       6 UNK         0.0367 
     41 CB         25.4339   30.8545    2.3332 C.3       6 UNK        -0.1929 
     42 C          27.2129   29.3735    3.5206 C.2       6 UNK         0.5070 
     43 O          27.6981   28.2728    3.7803 O.2       6 UNK        -0.5237 
     44 N          27.6855   30.5255    4.0076 N.am      7 UNK        -0.4739 
     45 CA         28.9332   30.6721    4.7557 C.3       7 UNK         0.0276 
     46 CB         28.6426   31.3518    6.1032 C.3       7 UNK        -0.1927 
     47 C          29.8985   31.5195    3.9177 C.2       7 UNK         0.5013 
     48 O          29.4531   32.4358    3.2210 O.2       7 UNK        -0.5193 
     49 N          31.1961   31.2158    4.0085 N.am      8 UNK        -0.4253 
     50 CA         32.2673   31.8694    3.2604 C.3       8 UNK         0.0242 
     51 CB         32.3250   31.2918    1.8319 C.3       8 UNK        -0.2000 
     52 C          33.5940   31.6466    3.9930 C.2       8 UNK         0.4948 
     53 O          33.6414   30.8811    4.9592 O.2       8 UNK        -0.5275 
     54 N          34.6714   32.2602    3.4834 N.am      9 UNK        -0.4246 
     55 CA         36.0493   32.1245    3.9828 C.3       9 UNK         0.0261 
     56 CB         36.9695   33.0557    3.1762 C.3       9 UNK        -0.1959 
     57 C          36.6043   30.6834    3.9792 C.2       9 UNK         0.5033 
     58 O          37.5810   30.4123    4.6786 O.2       9 UNK        -0.5390 
     59 N          35.9596   29.7848    3.2219 N.am      10 UNK        -0.4215 
     60 CA         36.1825   28.3386    3.2284 C.3       10 UNK         0.0240 
     61 CB         35.3848   27.7127    2.0732 C.3       10 UNK        -0.1982 
     62 C          35.8151   27.6536    4.5610 C.2       10 UNK         0.4970 
     63 O          36.3384   26.5699    4.8246 O.2       10 UNK        -0.4916 
     64 N          34.9447   28.2763    5.3677 N.am      11 UNK        -0.4279 
     65 CA         34.5241   27.7886    6.6895 C.3       11 UNK         0.1003 
     66 C          34.5894   28.8628    7.8104 C.2       11 UNK         0.5709 
     67 N          34.5537   30.1543    7.5070 N.am      11 UNK        -0.7358 
     68 O          34.7032   28.5144    8.9836 O.2       11 UNK        -0.4999 
     69 C69        33.1492   27.0739    6.6373 C.3       12 UNK        -0.0954 
     70 S70        31.7875   28.1234    6.0157 S.3       12 UNK        -0.2268 
     71 C71        30.7902   26.9121    5.1001 C.3       12 UNK         0.0203 
     72 H72        28.5887   24.8677    4.8042 H         1 UNK         0.0888 
     73 H73        28.6653   25.7391    3.2637 H         1 UNK         0.0888 
     74 H74        27.1443   25.0498    3.8049 H         1 UNK         0.0888 
     75 H75        30.1495   24.3990    2.1179 H         1 UNK         0.3017 
     76 H76        29.9570   21.5455    2.0109 H         1 UNK         0.0873 
     77 H77        31.5803   21.7591    0.0825 H         1 UNK         0.0745 
     78 H78        31.4278   23.4951    0.1629 H         1 UNK         0.0745 
     79 H79        33.8711   24.2165    0.7835 H         1 UNK         0.0705 
     80 H80        34.3555   24.2180    2.4604 H         1 UNK         0.0705 
     81 H81        32.4174   24.9088    4.1954 H         1 UNK         0.1334 
     82 H82        30.3040   28.3984    2.8718 H         1 UNK         0.1417 
     83 H83        32.5633   26.0686    0.0706 H         1 UNK         0.1562 
     84 H84        31.9486   28.7779   -0.1218 H         1 UNK         0.0748 
     85 H85        30.4099   29.1247    0.6204 H         1 UNK         0.0748 
     86 H86        28.6546   26.8645    0.5908 H         1 UNK         0.0940 
     87 H87        28.3051   26.1419   -0.9435 H         1 UNK         0.0940 
     88 H88        27.8312   28.7845   -1.6023 H         1 UNK         0.0703 
     89 H89        26.0649   26.5950   -0.9478 H         1 UNK         0.3081 
     90 H90        23.1486   28.0488   -2.1158 H         1 UNK         0.0719 
     91 H91        24.8893   26.5488   -4.1503 H         1 UNK         0.0809 
     92 H92        23.1302   26.6798   -4.1957 H         1 UNK         0.0809 
     93 H93        24.1238   28.1096   -4.4106 H         1 UNK         0.0809 
     94 H94        24.1056   25.3133   -2.1719 H         1 UNK         0.2990 
     95 H95        23.5980   24.6416    1.2534 H         1 UNK         0.0690 
     96 H96        22.0629   22.8930    0.4008 H         1 UNK         0.0788 
     97 H97        21.9125   23.7323   -1.1438 H         1 UNK         0.0788 
     98 H98        21.2803   24.4619    0.3257 H         1 UNK         0.0788 
     99 H99        24.2678   22.8801   -0.8353 H         1 UNK         0.2993 
    100 H100       26.4374   22.0080   -0.7478 H         1 UNK         0.0949 
    101 H101       27.4998   24.3721   -2.4284 H         1 UNK         0.0767 
    102 H102       27.8541   22.6742   -2.7345 H         1 UNK         0.0767 
    103 H103       26.2128   23.2728   -2.9079 H         1 UNK         0.0767 
    104 H104       28.1470   24.0081    0.4452 H         1 UNK         0.3013 
    105 H105       25.7977   27.9129    1.1267 H         1 UNK         0.3121 
    106 H106       25.2153   28.8437    3.0447 H         1 UNK         0.0774 
    107 H107       25.1056   31.3088    3.2689 H         1 UNK         0.0815 
    108 H108       26.1645   31.5231    1.8768 H         1 UNK         0.0815 
    109 H109       24.5653   30.8213    1.6753 H         1 UNK         0.0815 
    110 H110       27.2851   31.3897    3.6685 H         1 UNK         0.2987 
    111 H111       29.3897   29.6989    4.9439 H         1 UNK         0.0949 
    112 H112       28.2095   32.3443    5.9718 H         1 UNK         0.0806 
    113 H113       27.9498   30.7601    6.7018 H         1 UNK         0.0806 
    114 H114       29.5573   31.4675    6.6863 H         1 UNK         0.0806 
    115 H115       31.5193   30.5117    4.6630 H         1 UNK         0.3010 
    116 H116       32.0778   32.9442    3.2214 H         1 UNK         0.0829 
    117 H117       31.3717   31.4081    1.3158 H         1 UNK         0.0813 
    118 H118       33.0762   31.7965    1.2238 H         1 UNK         0.0813 
    119 H119       32.5711   30.2295    1.8438 H         1 UNK         0.0813 
    120 H120       34.5459   32.8681    2.6861 H         1 UNK         0.3038 
    121 H121       36.0508   32.4591    5.0224 H         1 UNK         0.0769 
    122 H122       36.9881   32.7881    2.1189 H         1 UNK         0.0811 
    123 H123       37.9959   33.0050    3.5426 H         1 UNK         0.0811 
    124 H124       36.6524   34.0957    3.2557 H         1 UNK         0.0811 
    125 H125       35.1826   30.1158    2.6709 H         1 UNK         0.3204 
    126 H126       37.2456   28.1624    3.0519 H         1 UNK         0.0748 
    127 H127       35.5371   26.6334    2.0309 H         1 UNK         0.0771 
    128 H128       34.3143   27.8859    2.1890 H         1 UNK         0.0771 
    129 H129       35.6902   28.1196    1.1091 H         1 UNK         0.0771 
    130 H130       34.5440   29.1650    5.0868 H         1 UNK         0.2980 
    131 H131       35.2458   27.0371    7.0150 H         1 UNK         0.0545 
    132 H132       34.3343   30.4599    6.5627 H         1 UNK         0.3459 
    133 H133       34.6116   30.8312    8.2500 H         1 UNK         0.3459 
    134 H134       32.8722   26.6985    7.6239 H         1 UNK         0.0616 
    135 H135       33.2389   26.1919    6.0038 H         1 UNK         0.0616 
    136 H136       29.7629   27.2725    5.0576 H         1 UNK         0.0634 
    137 H137       30.7539   25.9736    5.6553 H         1 UNK         0.0634 
@<TRIPOS>BOND
     1    1    2 1    
     2    1   72 1    
     3    1   73 1    
     4    1   74 1    
     5    2    3 2    
     6    2    4 am   BACKBONE|DICT|INTERRES
     7    4    5 1    
     8    4   75 1    
     9    5    6 1    
    10    5   35 1    
    11    5   76 1    
    12    6    7 1    
    13    6   77 1    
    14    6   78 1    
    15    7    8 1    
    16    8    9 1    
    17    8   79 1    
    18    8   80 1    
    19    9   10 ar   
    20    9   14 ar   
    21   10   11 ar   
    22   10   81 1    
    23   11   12 ar   
    24   11   71 1    
    25   12   13 ar   
    26   12   82 1    
    27   13   14 ar   
    28   13   15 1    
    29   14   83 1    
    30   15   16 1    
    31   15   84 1    
    32   15   85 1    
    33   16   17 1    
    34   17   18 1    
    35   17   86 1    
    36   17   87 1    
    37   18   19 1    
    38   18   37 1    
    39   18   88 1    
    40   19   20 am   BACKBONE|DICT|INTERRES
    41   19   89 1    
    42   20   21 2    
    43   20   22 1    
    44   22   23 1    
    45   22   24 1    
    46   22   90 1    
    47   23   91 1    
    48   23   92 1    
    49   23   93 1    
    50   24   25 am   BACKBONE|DICT|INTERRES
    51   24   94 1    
    52   25   26 2    
    53   25   27 1    
    54   27   28 1    
    55   27   29 1    
    56   27   95 1    
    57   28   96 1    
    58   28   97 1    
    59   28   98 1    
    60   29   30 am   BACKBONE|DICT|INTERRES
    61   29   99 1    
    62   30   31 2    
    63   30   32 1    
    64   32   33 1    
    65   32   34 1    
    66   32  100 1    
    67   33  101 1    
    68   33  102 1    
    69   33  103 1    
    70   34   35 am   BACKBONE|DICT|INTERRES
    71   34  104 1    
    72   35   36 2    
    73   37   38 2    
    74   37   39 am   BACKBONE|DICT|INTERRES
    75   39   40 1    
    76   39  105 1    
    77   40   41 1    
    78   40   42 1    
    79   40  106 1    
    80   41  107 1    
    81   41  108 1    
    82   41  109 1    
    83   42   43 2    
    84   42   44 am   BACKBONE|DICT|INTERRES
    85   44   45 1    
    86   44  110 1    
    87   45   46 1    
    88   45   47 1    
    89   45  111 1    
    90   46  112 1    
    91   46  113 1    
    92   46  114 1    
    93   47   48 2    
    94   47   49 am   BACKBONE|DICT|INTERRES
    95   49   50 1    
    96   49  115 1    
    97   50   51 1    
    98   50   52 1    
    99   50  116 1    
   100   51  117 1    
   101   51  118 1    
   102   51  119 1    
   103   52   53 2    
   104   52   54 am   BACKBONE|DICT|INTERRES
   105   54   55 1    
   106   54  120 1    
   107   55   56 1    
   108   55   57 1    
   109   55  121 1    
   110   56  122 1    
   111   56  123 1    
   112   56  124 1    
   113   57   58 2    
   114   57   59 am   BACKBONE|DICT|INTERRES
   115   59   60 1    
   116   59  125 1    
   117   60   61 1    
   118   60   62 1    
   119   60  126 1    
   120   61  127 1    
   121   61  128 1    
   122   61  129 1    
   123   62   63 2    
   124   62   64 am   BACKBONE|DICT|INTERRES
   125   64   65 1    
   126   64  130 1    
   127   65   66 1    
   128   65   69 1    
   129   65  131 1    
   130   66   67 am   BACKBONE|DICT|INTERRES
   131   66   68 2    
   132   67  132 1    
   133   67  133 1    
   134   69   70 1    
   135   69  134 1    
   136   69  135 1    
   137   70   71 1    
   138   71  136 1    
   139   71  137 1    
@<TRIPOS>SUBSTRUCTURE
     1 UNK         1 GROUP             0       ****    0 ROOT    
