@<TRIPOS>MOLECULE
3R136
137   139    1
SMALL
USER_CHARGES


@<TRIPOS>ATOM
      1 CA         28.6142   23.0107   -3.7253 C.3       0 UNK        -0.1979 
      2 C          28.6750   23.5009   -2.2873 C.2       0 UNK         0.4864 
      3 O          28.1610   24.5808   -1.9918 O.2       0 UNK        -0.5359 
      4 N          29.2837   22.7090   -1.3912 N.am      1 UNK        -0.4318 
      5 CA         29.5063   23.0065    0.0326 C.3       1 UNK         0.0824 
      6 C6         30.2003   21.8323    0.7636 C.3       12 UNK        -0.0944 
      7 S7         31.9193   21.6125    0.1944 S.3       12 UNK        -0.2672 
      8 C8         32.8439   21.5440    1.7654 C.3       12 UNK         0.0333 
      9 C9         32.8014   22.8578    2.5368 C.ar      12 UNK        -0.0807 
     10 C10        33.5416   23.9584    2.0949 C.ar      12 UNK        -0.0894 
     11 C11        33.5209   25.1593    2.8106 C.ar      12 UNK        -0.0804 
     12 C12        32.7601   25.2535    3.9783 C.ar      12 UNK        -0.0824 
     13 C13        32.0064   24.1649    4.4279 C.ar      12 UNK        -0.0762 
     14 C14        32.0390   22.9675    3.7051 C.ar      12 UNK        -0.0782 
     15 C15        31.1552   24.2653    5.6919 C.3       12 UNK         0.0230 
     16 S16        30.1691   25.7997    5.8135 S.3       12 UNK        -0.2608 
     17 C17        29.2019   25.7767    4.2656 C.3       12 UNK        -0.0989 
     18 CA         29.1570   27.1647    3.5731 C.3       5 UNK         0.0716 
     19 N          29.0360   27.0433    2.1149 N.am      5 UNK        -0.4135 
     20 C          29.1900   28.0596    1.2520 C.2       4 UNK         0.5031 
     21 O          29.4161   29.2196    1.5906 O.2       4 UNK        -0.5229 
     22 CA         28.9904   27.7555   -0.2408 C.3       4 UNK         0.0329 
     23 CB         30.2179   27.0523   -0.8380 C.3       4 UNK        -0.2001 
     24 N          27.7837   26.9763   -0.5201 N.am      4 UNK        -0.4303 
     25 C          26.5341   27.3974   -0.2766 C.2       3 UNK         0.5044 
     26 O          26.2671   28.4585    0.2867 O.2       3 UNK        -0.5152 
     27 CA         25.3922   26.4793   -0.7322 C.3       3 UNK         0.0319 
     28 CB         25.1851   26.5808   -2.2523 C.3       3 UNK        -0.2001 
     29 N          25.6622   25.0904   -0.3662 N.am      3 UNK        -0.4354 
     30 C          25.2986   24.5345    0.7977 C.2       2 UNK         0.4964 
     31 O          24.6226   25.1091    1.6514 O.2       2 UNK        -0.5047 
     32 CA         25.7840   23.0980    1.0708 C.3       2 UNK         0.0288 
     33 CB         24.7499   22.0762    0.5713 C.3       2 UNK        -0.2113 
     34 N          27.0928   22.7886    0.4856 N.am      2 UNK        -0.4145 
     35 C          28.2318   23.4290    0.7884 C.2       1 UNK         0.5006 
     36 O          28.2983   24.3550    1.5954 O.2       1 UNK        -0.5103 
     37 C          28.0513   28.0563    4.1789 C.2       5 UNK         0.5055 
     38 O          28.2995   28.7501    5.1657 O.2       5 UNK        -0.5220 
     39 N          26.8547   28.0358    3.5709 N.am      6 UNK        -0.4450 
     40 CA         25.7295   28.8954    3.9405 C.3       6 UNK         0.0367 
     41 CB         24.4340   28.3547    3.3145 C.3       6 UNK        -0.1929 
     42 C          25.9622   30.3644    3.5470 C.2       6 UNK         0.5070 
     43 O          25.5367   31.2550    4.2832 O.2       6 UNK        -0.5237 
     44 N          26.6368   30.5954    2.4109 N.am      7 UNK        -0.4739 
     45 CA         27.0466   31.9223    1.9480 C.3       7 UNK         0.0276 
     46 CB         27.4549   31.8620    0.4667 C.3       7 UNK        -0.1927 
     47 C          28.1675   32.5179    2.8169 C.2       7 UNK         0.5013 
     48 O          28.0441   33.6662    3.2461 O.2       7 UNK        -0.5193 
     49 N          29.2176   31.7311    3.0867 N.am      8 UNK        -0.4253 
     50 CA         30.3157   32.0892    3.9824 C.3       8 UNK         0.0242 
     51 CB         31.2981   33.0498    3.2827 C.3       8 UNK        -0.2000 
     52 C          31.0334   30.8104    4.4163 C.2       8 UNK         0.4948 
     53 O          31.4797   30.0557    3.5546 O.2       8 UNK        -0.5275 
     54 N          31.1991   30.6083    5.7303 N.am      9 UNK        -0.4246 
     55 CA         31.8237   29.4113    6.3138 C.3       9 UNK         0.0261 
     56 CB         31.6900   29.4620    7.8441 C.3       9 UNK        -0.1959 
     57 C          33.2928   29.1797    5.9058 C.2       9 UNK         0.5033 
     58 O          33.7576   28.0409    5.9465 O.2       9 UNK        -0.5390 
     59 N          33.9917   30.2525    5.5141 N.am      10 UNK        -0.4215 
     60 CA         35.3494   30.2122    4.9680 C.3       10 UNK         0.0240 
     61 CB         36.0716   31.5141    5.3576 C.3       10 UNK        -0.1982 
     62 C          35.3857   30.0145    3.4388 C.2       10 UNK         0.4970 
     63 O          36.4788   29.8387    2.8995 O.2       10 UNK        -0.4916 
     64 N          34.2271   30.0797    2.7633 N.am      11 UNK        -0.4279 
     65 CA         34.0661   30.0488    1.2975 C.3       11 UNK         0.1003 
     66 C          34.7275   31.2448    0.5434 C.2       11 UNK         0.5709 
     67 N          35.0091   32.3640    1.2010 N.am      11 UNK        -0.7358 
     68 O          34.9592   31.1797   -0.6619 O.2       11 UNK        -0.4999 
     69 C69        34.4083   28.6634    0.6774 C.3       12 UNK        -0.0954 
     70 S70        33.2490   27.3697    1.2243 S.3       12 UNK        -0.2268 
     71 C71        34.2973   26.3653    2.3113 C.3       12 UNK         0.0203 
     72 H72        29.0962   22.0409   -3.8472 H         1 UNK         0.0888 
     73 H73        27.5768   22.9182   -4.0454 H         1 UNK         0.0888 
     74 H74        29.1117   23.7228   -4.3830 H         1 UNK         0.0888 
     75 H75        29.6916   21.8412   -1.7094 H         1 UNK         0.3017 
     76 H76        30.1777   23.8657    0.0703 H         1 UNK         0.0873 
     77 H77        30.2017   21.9950    1.8421 H         1 UNK         0.0745 
     78 H78        29.6559   20.8996    0.6047 H         1 UNK         0.0745 
     79 H79        33.8830   21.2925    1.5477 H         1 UNK         0.0705 
     80 H80        32.4559   20.7242    2.3721 H         1 UNK         0.0705 
     81 H81        34.1254   23.8822    1.1876 H         1 UNK         0.1334 
     82 H82        32.7369   26.1850    4.5258 H         1 UNK         0.1417 
     83 H83        31.4672   22.1173    4.0517 H         1 UNK         0.1562 
     84 H84        31.8127   24.2041    6.5599 H         1 UNK         0.0748 
     85 H85        30.4722   23.4172    5.7624 H         1 UNK         0.0748 
     86 H86        28.2021   25.3838    4.4613 H         1 UNK         0.0940 
     87 H87        29.6684   25.0536    3.5982 H         1 UNK         0.0940 
     88 H88        30.1104   27.6679    3.7502 H         1 UNK         0.0703 
     89 H89        28.8052   26.1164    1.7625 H         1 UNK         0.3081 
     90 H90        28.8752   28.7116   -0.7561 H         1 UNK         0.0719 
     91 H91        30.4558   26.1300   -0.3093 H         1 UNK         0.0809 
     92 H92        30.0677   26.8087   -1.8899 H         1 UNK         0.0809 
     93 H93        31.0945   27.6977   -0.7794 H         1 UNK         0.0809 
     94 H94        27.9142   26.0923   -1.0096 H         1 UNK         0.2990 
     95 H95        24.4740   26.8177   -0.2468 H         1 UNK         0.0690 
     96 H96        26.0641   26.2500   -2.8072 H         1 UNK         0.0788 
     97 H97        24.9798   27.6102   -2.5491 H         1 UNK         0.0788 
     98 H98        24.3385   25.9753   -2.5762 H         1 UNK         0.0788 
     99 H99        26.2751   24.5725   -0.9849 H         1 UNK         0.2993 
    100 H100       25.8767   22.9913    2.1539 H         1 UNK         0.0949 
    101 H101       24.6356   22.1139   -0.5129 H         1 UNK         0.0767 
    102 H102       25.0315   21.0592    0.8455 H         1 UNK         0.0767 
    103 H103       23.7692   22.2678    1.0094 H         1 UNK         0.0767 
    104 H104       27.1247   22.0511   -0.2033 H         1 UNK         0.3013 
    105 H105       26.7359   27.4564    2.7523 H         1 UNK         0.3121 
    106 H106       25.6188   28.8582    5.0266 H         1 UNK         0.0774 
    107 H107       23.5761   28.9552    3.6193 H         1 UNK         0.0815 
    108 H108       24.4692   28.3699    2.2252 H         1 UNK         0.0815 
    109 H109       24.2389   27.3286    3.6273 H         1 UNK         0.0815 
    110 H110       26.9084   29.8060    1.8352 H         1 UNK         0.2987 
    111 H111       26.1817   32.5849    2.0267 H         1 UNK         0.0949 
    112 H112       28.3235   31.2238    0.3064 H         1 UNK         0.0806 
    113 H113       26.6429   31.4795   -0.1520 H         1 UNK         0.0806 
    114 H114       27.7087   32.8550    0.0936 H         1 UNK         0.0806 
    115 H115       29.2712   30.7986    2.6749 H         1 UNK         0.3010 
    116 H116       29.9024   32.5805    4.8659 H         1 UNK         0.0829 
    117 H117       32.1388   33.2936    3.9331 H         1 UNK         0.0813 
    118 H118       31.7055   32.6121    2.3701 H         1 UNK         0.0813 
    119 H119       30.8164   33.9900    3.0144 H         1 UNK         0.0813 
    120 H120       30.8162   31.2794    6.3811 H         1 UNK         0.3038 
    121 H121       31.2580   28.5506    5.9530 H         1 UNK         0.0769 
    122 H122       32.1180   28.5689    8.3019 H         1 UNK         0.0811 
    123 H123       30.6443   29.5080    8.1490 H         1 UNK         0.0811 
    124 H124       32.2053   30.3251    8.2672 H         1 UNK         0.0811 
    125 H125       33.5325   31.1512    5.5345 H         1 UNK         0.3204 
    126 H126       35.8946   29.3774    5.4138 H         1 UNK         0.0748 
    127 H127       37.1038   31.5113    5.0043 H         1 UNK         0.0771 
    128 H128       35.5842   32.3921    4.9320 H         1 UNK         0.0771 
    129 H129       36.1045   31.6399    6.4401 H         1 UNK         0.0771 
    130 H130       33.3500   30.1504    3.2716 H         1 UNK         0.2980 
    131 H131       32.9998   30.2102    1.1338 H         1 UNK         0.0545 
    132 H132       34.8158   32.4425    2.1854 H         1 UNK         0.3459 
    133 H133       35.4252   33.1351    0.7034 H         1 UNK         0.3459 
    134 H134       34.3324   28.6955   -0.4104 H         1 UNK         0.0616 
    135 H135       35.4364   28.3740    0.8981 H         1 UNK         0.0616 
    136 H136       34.6384   26.9726    3.1513 H         1 UNK         0.0634 
    137 H137       35.1884   26.0445    1.7696 H         1 UNK         0.0634 
@<TRIPOS>BOND
     1    1    2 1    
     2    1   72 1    
     3    1   73 1    
     4    1   74 1    
     5    2    3 2    
     6    2    4 am   BACKBONE|DICT|INTERRES
     7    4    5 1    
     8    4   75 1    
     9    5    6 1    
    10    5   35 1    
    11    5   76 1    
    12    6    7 1    
    13    6   77 1    
    14    6   78 1    
    15    7    8 1    
    16    8    9 1    
    17    8   79 1    
    18    8   80 1    
    19    9   10 ar   
    20    9   14 ar   
    21   10   11 ar   
    22   10   81 1    
    23   11   12 ar   
    24   11   71 1    
    25   12   13 ar   
    26   12   82 1    
    27   13   14 ar   
    28   13   15 1    
    29   14   83 1    
    30   15   16 1    
    31   15   84 1    
    32   15   85 1    
    33   16   17 1    
    34   17   18 1    
    35   17   86 1    
    36   17   87 1    
    37   18   19 1    
    38   18   37 1    
    39   18   88 1    
    40   19   20 am   BACKBONE|DICT|INTERRES
    41   19   89 1    
    42   20   21 2    
    43   20   22 1    
    44   22   23 1    
    45   22   24 1    
    46   22   90 1    
    47   23   91 1    
    48   23   92 1    
    49   23   93 1    
    50   24   25 am   BACKBONE|DICT|INTERRES
    51   24   94 1    
    52   25   26 2    
    53   25   27 1    
    54   27   28 1    
    55   27   29 1    
    56   27   95 1    
    57   28   96 1    
    58   28   97 1    
    59   28   98 1    
    60   29   30 am   BACKBONE|DICT|INTERRES
    61   29   99 1    
    62   30   31 2    
    63   30   32 1    
    64   32   33 1    
    65   32   34 1    
    66   32  100 1    
    67   33  101 1    
    68   33  102 1    
    69   33  103 1    
    70   34   35 am   BACKBONE|DICT|INTERRES
    71   34  104 1    
    72   35   36 2    
    73   37   38 2    
    74   37   39 am   BACKBONE|DICT|INTERRES
    75   39   40 1    
    76   39  105 1    
    77   40   41 1    
    78   40   42 1    
    79   40  106 1    
    80   41  107 1    
    81   41  108 1    
    82   41  109 1    
    83   42   43 2    
    84   42   44 am   BACKBONE|DICT|INTERRES
    85   44   45 1    
    86   44  110 1    
    87   45   46 1    
    88   45   47 1    
    89   45  111 1    
    90   46  112 1    
    91   46  113 1    
    92   46  114 1    
    93   47   48 2    
    94   47   49 am   BACKBONE|DICT|INTERRES
    95   49   50 1    
    96   49  115 1    
    97   50   51 1    
    98   50   52 1    
    99   50  116 1    
   100   51  117 1    
   101   51  118 1    
   102   51  119 1    
   103   52   53 2    
   104   52   54 am   BACKBONE|DICT|INTERRES
   105   54   55 1    
   106   54  120 1    
   107   55   56 1    
   108   55   57 1    
   109   55  121 1    
   110   56  122 1    
   111   56  123 1    
   112   56  124 1    
   113   57   58 2    
   114   57   59 am   BACKBONE|DICT|INTERRES
   115   59   60 1    
   116   59  125 1    
   117   60   61 1    
   118   60   62 1    
   119   60  126 1    
   120   61  127 1    
   121   61  128 1    
   122   61  129 1    
   123   62   63 2    
   124   62   64 am   BACKBONE|DICT|INTERRES
   125   64   65 1    
   126   64  130 1    
   127   65   66 1    
   128   65   69 1    
   129   65  131 1    
   130   66   67 am   BACKBONE|DICT|INTERRES
   131   66   68 2    
   132   67  132 1    
   133   67  133 1    
   134   69   70 1    
   135   69  134 1    
   136   69  135 1    
   137   70   71 1    
   138   71  136 1    
   139   71  137 1    
@<TRIPOS>SUBSTRUCTURE
     1 UNK         1 GROUP             0       ****    0 ROOT    
