@<TRIPOS>MOLECULE
3R136
137   139    1
SMALL
USER_CHARGES


@<TRIPOS>ATOM
      1 CA         29.0464   18.7546   -2.2534 C.3       0 UNK        -0.1979 
      2 C          29.4463   20.2091   -2.0529 C.2       0 UNK         0.4864 
      3 O          30.4691   20.6412   -2.5872 O.2       0 UNK        -0.5359 
      4 N          28.6530   20.9643   -1.2816 N.am      1 UNK        -0.4318 
      5 CA         28.8453   22.3968   -1.0368 C.3       1 UNK         0.0824 
      6 C6         28.0437   22.8638    0.2070 C.3       12 UNK        -0.0944 
      7 S7         28.8400   24.2555    1.0774 S.3       12 UNK        -0.2672 
      8 C8         29.8816   23.3346    2.2522 C.3       12 UNK         0.0333 
      9 C9         30.4546   24.2367    3.3334 C.ar      12 UNK        -0.0807 
     10 C10        31.6439   24.9383    3.1146 C.ar      12 UNK        -0.0894 
     11 C11        32.1933   25.7322    4.1265 C.ar      12 UNK        -0.0804 
     12 C12        31.5323   25.8373    5.3554 C.ar      12 UNK        -0.0824 
     13 C13        30.3522   25.1273    5.5919 C.ar      12 UNK        -0.0762 
     14 C14        29.8168   24.3318    4.5738 C.ar      12 UNK        -0.0782 
     15 C15        29.6912   25.1715    6.9641 C.3       12 UNK         0.0230 
     16 S16        27.9537   25.7073    6.8895 S.3       12 UNK        -0.2608 
     17 C17        28.1176   27.5110    6.6617 C.3       12 UNK        -0.0989 
     18 CA         28.2527   27.9573    5.1825 C.3       5 UNK         0.0716 
     19 N          27.2903   27.2830    4.3023 N.am      5 UNK        -0.4135 
     20 C          27.1928   27.4689    2.9811 C.2       4 UNK         0.5031 
     21 O          27.9337   28.2203    2.3399 O.2       4 UNK        -0.5229 
     22 CA         26.0648   26.7228    2.2555 C.3       4 UNK         0.0329 
     23 CB         24.6792   27.1684    2.7663 C.3       4 UNK        -0.2001 
     24 N          26.1915   27.0132    0.8311 N.am      4 UNK        -0.4303 
     25 C          25.6114   26.3671   -0.1831 C.2       3 UNK         0.5044 
     26 O          24.8749   25.3894   -0.0523 O.2       3 UNK        -0.5152 
     27 CA         25.9364   26.8867   -1.5879 C.3       3 UNK         0.0319 
     28 CB         26.0921   28.4228   -1.6578 C.3       3 UNK        -0.2001 
     29 N          27.1504   26.2192   -2.0408 N.am      3 UNK        -0.4354 
     30 C          27.5562   26.1060   -3.3115 C.2       2 UNK         0.4964 
     31 O          26.9582   26.5948   -4.2706 O.2       2 UNK        -0.5047 
     32 CA         28.8503   25.3078   -3.5617 C.3       2 UNK         0.0288 
     33 CB         30.0434   26.2592   -3.7498 C.3       2 UNK        -0.2113 
     34 N          29.1534   24.3503   -2.4915 N.am      2 UNK        -0.4145 
     35 C          28.4659   23.2183   -2.2853 C.2       1 UNK         0.5006 
     36 O          27.5386   22.8405   -3.0075 O.2       1 UNK        -0.5103 
     37 C          28.1130   29.4914    5.0828 C.2       5 UNK         0.5055 
     38 O          26.9856   29.9915    5.0986 O.2       5 UNK        -0.5220 
     39 N          29.2414   30.2009    4.9455 N.am      6 UNK        -0.4450 
     40 CA         29.3860   31.6472    4.7149 C.3       6 UNK         0.0367 
     41 CB         28.6812   32.4929    5.7939 C.3       6 UNK        -0.1929 
     42 C          28.9944   32.0967    3.2939 C.2       6 UNK         0.5070 
     43 O          29.6447   32.9937    2.7581 O.2       6 UNK        -0.5237 
     44 N          27.9704   31.4712    2.6975 N.am      7 UNK        -0.4739 
     45 CA         27.5231   31.7113    1.3232 C.3       7 UNK         0.0276 
     46 CB         26.1316   31.0907    1.1145 C.3       7 UNK        -0.1927 
     47 C          28.5262   31.1860    0.2828 C.2       7 UNK         0.5013 
     48 O          28.8428   31.9034   -0.6667 O.2       7 UNK        -0.5193 
     49 N          29.0161   29.9554    0.4897 N.am      8 UNK        -0.4253 
     50 CA         30.0905   29.3427   -0.2924 C.3       8 UNK         0.0242 
     51 CB         30.0931   27.8184   -0.0730 C.3       8 UNK        -0.2000 
     52 C          31.4461   29.9518    0.0893 C.2       8 UNK         0.4948 
     53 O          32.1682   30.4383   -0.7815 O.2       8 UNK        -0.5275 
     54 N          31.7404   29.9303    1.3932 N.am      9 UNK        -0.4246 
     55 CA         32.9183   30.4938    2.0394 C.3       9 UNK         0.0261 
     56 CB         34.1879   29.7081    1.6510 C.3       9 UNK        -0.1959 
     57 C          32.6918   30.4251    3.5517 C.2       9 UNK         0.5033 
     58 O          31.8839   29.6128    4.0142 O.2       9 UNK        -0.5390 
     59 N          33.4365   31.2420    4.3014 N.am      10 UNK        -0.4215 
     60 CA         33.5196   31.1877    5.7616 C.3       10 UNK         0.0240 
     61 CB         33.4474   32.6191    6.3265 C.3       10 UNK        -0.1982 
     62 C          34.8177   30.4550    6.1399 C.2       10 UNK         0.4970 
     63 O          35.7273   31.0566    6.7129 O.2       10 UNK        -0.4916 
     64 N          34.8994   29.1790    5.7431 N.am      11 UNK        -0.4279 
     65 CA         36.0928   28.3270    5.8702 C.3       11 UNK         0.1003 
     66 C          36.4161   27.8292    7.3112 C.2       11 UNK         0.5709 
     67 N          35.5439   28.0203    8.2941 N.am      11 UNK        -0.7358 
     68 O          37.4873   27.2731    7.5424 O.2       11 UNK        -0.4999 
     69 C69        36.0844   27.1817    4.8194 C.3       12 UNK        -0.0954 
     70 S70        34.7828   25.9282    5.0827 S.3       12 UNK        -0.2268 
     71 C71        33.5065   26.4674    3.9029 C.3       12 UNK         0.0203 
     72 H72        28.8815   18.5538   -3.3117 H         1 UNK         0.0888 
     73 H73        29.8389   18.0954   -1.9003 H         1 UNK         0.0888 
     74 H74        28.1327   18.5047   -1.7146 H         1 UNK         0.0888 
     75 H75        27.8073   20.5636   -0.9020 H         1 UNK         0.3017 
     76 H76        29.9109   22.5415   -0.8435 H         1 UNK         0.0873 
     77 H77        27.0219   23.1496   -0.0537 H         1 UNK         0.0745 
     78 H78        27.9314   22.0438    0.9181 H         1 UNK         0.0745 
     79 H79        30.6899   22.8435    1.7082 H         1 UNK         0.0705 
     80 H80        29.2978   22.5378    2.7156 H         1 UNK         0.0705 
     81 H81        32.1462   24.8537    2.1606 H         1 UNK         0.1334 
     82 H82        31.9608   26.4472    6.1390 H         1 UNK         0.1417 
     83 H83        28.9069   23.7755    4.7546 H         1 UNK         0.1562 
     84 H84        30.2419   25.8167    7.6504 H         1 UNK         0.0748 
     85 H85        29.7261   24.1702    7.3954 H         1 UNK         0.0748 
     86 H86        28.9655   27.8723    7.2467 H         1 UNK         0.0940 
     87 H87        27.2317   27.9620    7.1148 H         1 UNK         0.0940 
     88 H88        29.2469   27.6802    4.8260 H         1 UNK         0.0703 
     89 H89        26.6468   26.6567    4.7622 H         1 UNK         0.3081 
     90 H90        26.2002   25.6512    2.4152 H         1 UNK         0.0719 
     91 H91        24.5321   28.2419    2.6396 H         1 UNK         0.0809 
     92 H92        23.8742   26.6576    2.2380 H         1 UNK         0.0809 
     93 H93        24.5532   26.9444    3.8260 H         1 UNK         0.0809 
     94 H94        26.8464   27.7605    0.6392 H         1 UNK         0.2990 
     95 H95        25.1088   26.5935   -2.2376 H         1 UNK         0.0690 
     96 H96        26.1350   28.7656   -2.6916 H         1 UNK         0.0788 
     97 H97        26.9997   28.7688   -1.1641 H         1 UNK         0.0788 
     98 H98        25.2442   28.9259   -1.1911 H         1 UNK         0.0788 
     99 H99        27.6802   25.7444   -1.3228 H         1 UNK         0.2993 
    100 H100       28.7120   24.7488   -4.4902 H         1 UNK         0.0949 
    101 H101       30.2221   26.8674   -2.8638 H         1 UNK         0.0767 
    102 H102       30.9586   25.7108   -3.9737 H         1 UNK         0.0767 
    103 H103       29.8665   26.9435   -4.5809 H         1 UNK         0.0767 
    104 H104       29.9010   24.5936   -1.8571 H         1 UNK         0.3013 
    105 H105       30.1190   29.6937    4.8526 H         1 UNK         0.3121 
    106 H106       30.4530   31.8479    4.8142 H         1 UNK         0.0774 
    107 H107       28.9413   33.5466    5.6862 H         1 UNK         0.0815 
    108 H108       27.5953   32.4247    5.7281 H         1 UNK         0.0815 
    109 H109       28.9791   32.1864    6.7965 H         1 UNK         0.0815 
    110 H110       27.4811   30.7603    3.2299 H         1 UNK         0.2987 
    111 H111       27.4364   32.7908    1.1806 H         1 UNK         0.0949 
    112 H112       25.7777   31.2610    0.0968 H         1 UNK         0.0806 
    113 H113       26.1342   30.0143    1.2837 H         1 UNK         0.0806 
    114 H114       25.3978   31.5314    1.7895 H         1 UNK         0.0806 
    115 H115       28.6718   29.4217    1.2880 H         1 UNK         0.3010 
    116 H116       29.9122   29.5380   -1.3522 H         1 UNK         0.0829 
    117 H117       29.1654   27.3678   -0.4209 H         1 UNK         0.0813 
    118 H118       30.9116   27.3461   -0.6169 H         1 UNK         0.0813 
    119 H119       30.2122   27.5531    0.9786 H         1 UNK         0.0813 
    120 H120       31.0884   29.5110    2.0452 H         1 UNK         0.3038 
    121 H121       33.0162   31.5399    1.7423 H         1 UNK         0.0769 
    122 H122       34.0827   28.6441    1.8627 H         1 UNK         0.0811 
    123 H123       35.0611   30.0655    2.1982 H         1 UNK         0.0811 
    124 H124       34.4148   29.8128    0.5902 H         1 UNK         0.0811 
    125 H125       34.0959   31.8558    3.8423 H         1 UNK         0.3204 
    126 H126       32.6847   30.6214    6.1802 H         1 UNK         0.0748 
    127 H127       33.5101   32.6123    7.4155 H         1 UNK         0.0771 
    128 H128       34.2597   33.2454    5.9555 H         1 UNK         0.0771 
    129 H129       32.5063   33.1006    6.0600 H         1 UNK         0.0771 
    130 H130       34.0977   28.7564    5.3000 H         1 UNK         0.2980 
    131 H131       36.9422   28.9610    5.6083 H         1 UNK         0.0545 
    132 H132       34.6655   28.4784    8.1165 H         1 UNK         0.3459 
    133 H133       35.7689   27.6990    9.2223 H         1 UNK         0.3459 
    134 H134       37.0465   26.6665    4.8232 H         1 UNK         0.0616 
    135 H135       35.9847   27.5979    3.8157 H         1 UNK         0.0616 
    136 H136       33.8740   26.3145    2.8871 H         1 UNK         0.0634 
    137 H137       33.3356   27.5341    4.0169 H         1 UNK         0.0634 
@<TRIPOS>BOND
     1    1    2 1    
     2    1   72 1    
     3    1   73 1    
     4    1   74 1    
     5    2    3 2    
     6    2    4 am   BACKBONE|DICT|INTERRES
     7    4    5 1    
     8    4   75 1    
     9    5    6 1    
    10    5   35 1    
    11    5   76 1    
    12    6    7 1    
    13    6   77 1    
    14    6   78 1    
    15    7    8 1    
    16    8    9 1    
    17    8   79 1    
    18    8   80 1    
    19    9   10 ar   
    20    9   14 ar   
    21   10   11 ar   
    22   10   81 1    
    23   11   12 ar   
    24   11   71 1    
    25   12   13 ar   
    26   12   82 1    
    27   13   14 ar   
    28   13   15 1    
    29   14   83 1    
    30   15   16 1    
    31   15   84 1    
    32   15   85 1    
    33   16   17 1    
    34   17   18 1    
    35   17   86 1    
    36   17   87 1    
    37   18   19 1    
    38   18   37 1    
    39   18   88 1    
    40   19   20 am   BACKBONE|DICT|INTERRES
    41   19   89 1    
    42   20   21 2    
    43   20   22 1    
    44   22   23 1    
    45   22   24 1    
    46   22   90 1    
    47   23   91 1    
    48   23   92 1    
    49   23   93 1    
    50   24   25 am   BACKBONE|DICT|INTERRES
    51   24   94 1    
    52   25   26 2    
    53   25   27 1    
    54   27   28 1    
    55   27   29 1    
    56   27   95 1    
    57   28   96 1    
    58   28   97 1    
    59   28   98 1    
    60   29   30 am   BACKBONE|DICT|INTERRES
    61   29   99 1    
    62   30   31 2    
    63   30   32 1    
    64   32   33 1    
    65   32   34 1    
    66   32  100 1    
    67   33  101 1    
    68   33  102 1    
    69   33  103 1    
    70   34   35 am   BACKBONE|DICT|INTERRES
    71   34  104 1    
    72   35   36 2    
    73   37   38 2    
    74   37   39 am   BACKBONE|DICT|INTERRES
    75   39   40 1    
    76   39  105 1    
    77   40   41 1    
    78   40   42 1    
    79   40  106 1    
    80   41  107 1    
    81   41  108 1    
    82   41  109 1    
    83   42   43 2    
    84   42   44 am   BACKBONE|DICT|INTERRES
    85   44   45 1    
    86   44  110 1    
    87   45   46 1    
    88   45   47 1    
    89   45  111 1    
    90   46  112 1    
    91   46  113 1    
    92   46  114 1    
    93   47   48 2    
    94   47   49 am   BACKBONE|DICT|INTERRES
    95   49   50 1    
    96   49  115 1    
    97   50   51 1    
    98   50   52 1    
    99   50  116 1    
   100   51  117 1    
   101   51  118 1    
   102   51  119 1    
   103   52   53 2    
   104   52   54 am   BACKBONE|DICT|INTERRES
   105   54   55 1    
   106   54  120 1    
   107   55   56 1    
   108   55   57 1    
   109   55  121 1    
   110   56  122 1    
   111   56  123 1    
   112   56  124 1    
   113   57   58 2    
   114   57   59 am   BACKBONE|DICT|INTERRES
   115   59   60 1    
   116   59  125 1    
   117   60   61 1    
   118   60   62 1    
   119   60  126 1    
   120   61  127 1    
   121   61  128 1    
   122   61  129 1    
   123   62   63 2    
   124   62   64 am   BACKBONE|DICT|INTERRES
   125   64   65 1    
   126   64  130 1    
   127   65   66 1    
   128   65   69 1    
   129   65  131 1    
   130   66   67 am   BACKBONE|DICT|INTERRES
   131   66   68 2    
   132   67  132 1    
   133   67  133 1    
   134   69   70 1    
   135   69  134 1    
   136   69  135 1    
   137   70   71 1    
   138   71  136 1    
   139   71  137 1    
@<TRIPOS>SUBSTRUCTURE
     1 UNK         1 GROUP             0       ****    0 ROOT    
