@<TRIPOS>MOLECULE
3R136
137   139    1
SMALL
USER_CHARGES


@<TRIPOS>ATOM
      1 CA         29.0237   26.6886    4.6452 C.3       0 UNK        -0.1979 
      2 C          28.0928   25.7737    3.8674 C.2       0 UNK         0.4864 
      3 O          26.8974   25.7201    4.1600 O.2       0 UNK        -0.5359 
      4 N          28.6448   25.0281    2.9016 N.am      1 UNK        -0.4318 
      5 CA         27.9422   24.0145    2.1093 C.3       1 UNK         0.0824 
      6 C6         28.9065   23.1815    1.2293 C.3       12 UNK        -0.0944 
      7 S7         30.1826   22.3171    2.2081 S.3       12 UNK        -0.2672 
      8 C8         31.7222   23.0859    1.6087 C.3       12 UNK         0.0333 
      9 C9         31.8953   24.5047    2.1323 C.ar      12 UNK        -0.0807 
     10 C10        32.4260   24.7241    3.4063 C.ar      12 UNK        -0.0894 
     11 C11        32.6077   26.0218    3.8971 C.ar      12 UNK        -0.0804 
     12 C12        32.2245   27.1082    3.0970 C.ar      12 UNK        -0.0824 
     13 C13        31.6927   26.9012    1.8207 C.ar      12 UNK        -0.0762 
     14 C14        31.5431   25.5987    1.3396 C.ar      12 UNK        -0.0782 
     15 C15        31.2833   28.0817    0.9559 C.3       12 UNK         0.0230 
     16 S16        29.6116   28.6504    1.3818 S.3       12 UNK        -0.2608 
     17 C17        29.2542   29.7858   -0.0082 C.3       12 UNK        -0.0989 
     18 CA         28.1070   29.2954   -0.9322 C.3       5 UNK         0.0716 
     19 N          28.3639   27.9506   -1.4495 N.am      5 UNK        -0.4135 
     20 C          27.7295   27.3731   -2.4767 C.2       4 UNK         0.5031 
     21 O          26.8068   27.9017   -3.0983 O.2       4 UNK        -0.5229 
     22 CA         28.2205   25.9822   -2.9069 C.3       4 UNK         0.0329 
     23 CB         29.5698   25.5680   -2.2849 C.3       4 UNK        -0.2001 
     24 N          27.2132   24.9962   -2.5347 N.am      4 UNK        -0.4303 
     25 C          26.5384   24.2121   -3.3857 C.2       3 UNK         0.5044 
     26 O          26.6903   24.2372   -4.6081 O.2       3 UNK        -0.5152 
     27 CA         25.5417   23.2001   -2.7847 C.3       3 UNK         0.0319 
     28 CB         26.0631   21.7637   -2.9613 C.3       3 UNK        -0.2001 
     29 N          25.2614   23.4244   -1.3646 N.am      3 UNK        -0.4354 
     30 C          24.4802   24.4005   -0.8831 C.2       2 UNK         0.4964 
     31 O          23.8506   25.1868   -1.5898 O.2       2 UNK        -0.5047 
     32 CA         24.4049   24.5342    0.6471 C.3       2 UNK         0.0288 
     33 CB         23.1869   23.7723    1.1935 C.3       2 UNK        -0.2113 
     34 N          25.6120   24.0878    1.3534 N.am      2 UNK        -0.4145 
     35 C          26.8302   24.6395    1.2444 C.2       1 UNK         0.5006 
     36 O          27.1016   25.5728    0.4821 O.2       1 UNK        -0.5103 
     37 C          26.7402   29.4340   -0.2336 C.2       5 UNK         0.5055 
     38 O          26.1280   30.4986   -0.3337 O.2       5 UNK        -0.5220 
     39 N          26.3202   28.3865    0.4965 N.am      6 UNK        -0.4450 
     40 CA         25.1765   28.3597    1.4195 C.3       6 UNK         0.0367 
     41 CB         23.8469   28.4315    0.6380 C.3       6 UNK        -0.1929 
     42 C          25.2678   29.4252    2.5350 C.2       6 UNK         0.5070 
     43 O          24.2384   29.9243    2.9935 O.2       6 UNK        -0.5237 
     44 N          26.4972   29.7684    2.9382 N.am      7 UNK        -0.4739 
     45 CA         26.8071   30.8325    3.8866 C.3       7 UNK         0.0276 
     46 CB         26.9351   32.1769    3.1381 C.3       7 UNK        -0.1927 
     47 C          28.0564   30.4301    4.6775 C.2       7 UNK         0.5013 
     48 O          27.9371   29.6461    5.6187 O.2       7 UNK        -0.5193 
     49 N          29.2227   30.9536    4.2861 N.am      8 UNK        -0.4253 
     50 CA         30.5312   30.6856    4.8734 C.3       8 UNK         0.0242 
     51 CB         30.6535   31.3694    6.2516 C.3       8 UNK        -0.2000 
     52 C          31.6119   31.1935    3.9099 C.2       8 UNK         0.4948 
     53 O          31.2985   31.8966    2.9448 O.2       8 UNK        -0.5275 
     54 N          32.8641   30.8468    4.2134 N.am      9 UNK        -0.4246 
     55 CA         34.0784   31.3048    3.5447 C.3       9 UNK         0.0261 
     56 CB         34.3581   30.4457    2.2935 C.3       9 UNK        -0.1959 
     57 C          35.2095   31.2930    4.5865 C.2       9 UNK         0.5033 
     58 O          34.9325   31.5035    5.7706 O.2       9 UNK        -0.5390 
     59 N          36.4532   31.0387    4.1541 N.am      10 UNK        -0.4215 
     60 CA         37.6132   30.8618    5.0362 C.3       10 UNK         0.0240 
     61 CB         38.9007   30.7868    4.1984 C.3       10 UNK        -0.1982 
     62 C          37.4740   29.6272    5.9464 C.2       10 UNK         0.4970 
     63 O          37.7391   29.7304    7.1450 O.2       10 UNK        -0.4916 
     64 N          37.0176   28.5116    5.3574 N.am      11 UNK        -0.4279 
     65 CA         36.6538   27.2504    6.0256 C.3       11 UNK         0.1003 
     66 C          37.8179   26.6220    6.8545 C.2       11 UNK         0.5709 
     67 N          37.5363   25.8786    7.9172 N.am      11 UNK        -0.7358 
     68 O          38.9886   26.7514    6.4995 O.2       11 UNK        -0.4999 
     69 C69        35.2941   27.3688    6.7801 C.3       12 UNK        -0.0954 
     70 S70        33.9323   27.8233    5.6501 S.3       12 UNK        -0.2268 
     71 C71        33.2013   26.1871    5.2978 C.3       12 UNK         0.0203 
     72 H72        28.5699   26.9827    5.5912 H         1 UNK         0.0888 
     73 H73        29.9632   26.1867    4.8704 H         1 UNK         0.0888 
     74 H74        29.2383   27.5912    4.0769 H         1 UNK         0.0888 
     75 H75        29.6322   25.1234    2.7055 H         1 UNK         0.3017 
     76 H76        27.4742   23.3333    2.8234 H         1 UNK         0.0873 
     77 H77        29.3807   23.8063    0.4727 H         1 UNK         0.0745 
     78 H78        28.3523   22.4186    0.6790 H         1 UNK         0.0745 
     79 H79        31.7415   23.0684    0.5178 H         1 UNK         0.0705 
     80 H80        32.5659   22.4751    1.9336 H         1 UNK         0.0705 
     81 H81        32.7032   23.8757    4.0177 H         1 UNK         0.1334 
     82 H82        32.3326   28.1204    3.4568 H         1 UNK         0.1417 
     83 H83        31.1516   25.4357    0.3469 H         1 UNK         0.1562 
     84 H84        31.3234   27.8066   -0.0991 H         1 UNK         0.0748 
     85 H85        31.9853   28.9042    1.0864 H         1 UNK         0.0748 
     86 H86        30.1591   29.9296   -0.6006 H         1 UNK         0.0940 
     87 H87        29.0266   30.7723    0.4013 H         1 UNK         0.0940 
     88 H88        28.0787   29.9650   -1.7948 H         1 UNK         0.0703 
     89 H89        29.0774   27.4249   -0.9686 H         1 UNK         0.3081 
     90 H90        28.3482   26.0188   -3.9907 H         1 UNK         0.0719 
     91 H91        29.8995   24.6063   -2.6788 H         1 UNK         0.0809 
     92 H92        30.3543   26.2910   -2.5135 H         1 UNK         0.0809 
     93 H93        29.4996   25.4699   -1.2029 H         1 UNK         0.0809 
     94 H94        26.9783   24.9631   -1.5497 H         1 UNK         0.2990 
     95 H95        24.6070   23.2951   -3.3417 H         1 UNK         0.0690 
     96 H96        26.2448   21.5399   -4.0135 H         1 UNK         0.0788 
     97 H97        25.3418   21.0314   -2.5978 H         1 UNK         0.0788 
     98 H98        27.0019   21.6061   -2.4285 H         1 UNK         0.0788 
     99 H99        25.7230   22.8120   -0.7083 H         1 UNK         0.2993 
    100 H100       24.2653   25.5912    0.8683 H         1 UNK         0.0949 
    101 H101       23.2748   22.6974    1.0299 H         1 UNK         0.0767 
    102 H102       23.0599   23.9414    2.2631 H         1 UNK         0.0767 
    103 H103       22.2686   24.1024    0.7051 H         1 UNK         0.0767 
    104 H104       25.4854   23.3287    2.0077 H         1 UNK         0.3013 
    105 H105       26.8769   27.5357    0.4782 H         1 UNK         0.3121 
    106 H106       25.2218   27.3973    1.9298 H         1 UNK         0.0774 
    107 H107       23.6846   29.4217    0.2112 H         1 UNK         0.0815 
    108 H108       22.9990   28.2156    1.2889 H         1 UNK         0.0815 
    109 H109       23.8223   27.7116   -0.1798 H         1 UNK         0.0815 
    110 H110       27.2906   29.2816    2.5419 H         1 UNK         0.2987 
    111 H111       25.9980   30.9220    4.6152 H         1 UNK         0.0949 
    112 H112       27.2463   32.9765    3.8118 H         1 UNK         0.0806 
    113 H113       27.6543   32.1267    2.3197 H         1 UNK         0.0806 
    114 H114       25.9778   32.4749    2.7098 H         1 UNK         0.0806 
    115 H115       29.2625   31.5584    3.4741 H         1 UNK         0.3010 
    116 H116       30.6521   29.6057    4.9839 H         1 UNK         0.0829 
    117 H117       29.9083   30.9955    6.9536 H         1 UNK         0.0813 
    118 H118       31.6301   31.1871    6.7019 H         1 UNK         0.0813 
    119 H119       30.5262   32.4499    6.1745 H         1 UNK         0.0813 
    120 H120       33.0392   30.3343    5.0694 H         1 UNK         0.3038 
    121 H121       33.9451   32.3442    3.2376 H         1 UNK         0.0769 
    122 H122       33.5299   30.5111    1.5894 H         1 UNK         0.0811 
    123 H123       34.5019   29.3944    2.5469 H         1 UNK         0.0811 
    124 H124       35.2423   30.7879    1.7553 H         1 UNK         0.0811 
    125 H125       36.6016   30.8949    3.1658 H         1 UNK         0.3204 
    126 H126       37.6794   31.7414    5.6805 H         1 UNK         0.0748 
    127 H127       39.7751   30.6670    4.8398 H         1 UNK         0.0771 
    128 H128       38.8882   29.9449    3.5051 H         1 UNK         0.0771 
    129 H129       39.0496   31.6977    3.6182 H         1 UNK         0.0771 
    130 H130       36.8548   28.5326    4.3627 H         1 UNK         0.2980 
    131 H131       36.5038   26.5364    5.2151 H         1 UNK         0.0545 
    132 H132       36.5856   25.7402    8.2202 H         1 UNK         0.3459 
    133 H133       38.2933   25.4570    8.4324 H         1 UNK         0.3459 
    134 H134       35.0271   26.4363    7.2785 H         1 UNK         0.0616 
    135 H135       35.3587   28.1246    7.5645 H         1 UNK         0.0616 
    136 H136       33.9717   25.4266    5.4344 H         1 UNK         0.0634 
    137 H137       32.4278   25.9834    6.0392 H         1 UNK         0.0634 
@<TRIPOS>BOND
     1    1    2 1    
     2    1   72 1    
     3    1   73 1    
     4    1   74 1    
     5    2    3 2    
     6    2    4 am   BACKBONE|DICT|INTERRES
     7    4    5 1    
     8    4   75 1    
     9    5    6 1    
    10    5   35 1    
    11    5   76 1    
    12    6    7 1    
    13    6   77 1    
    14    6   78 1    
    15    7    8 1    
    16    8    9 1    
    17    8   79 1    
    18    8   80 1    
    19    9   10 ar   
    20    9   14 ar   
    21   10   11 ar   
    22   10   81 1    
    23   11   12 ar   
    24   11   71 1    
    25   12   13 ar   
    26   12   82 1    
    27   13   14 ar   
    28   13   15 1    
    29   14   83 1    
    30   15   16 1    
    31   15   84 1    
    32   15   85 1    
    33   16   17 1    
    34   17   18 1    
    35   17   86 1    
    36   17   87 1    
    37   18   19 1    
    38   18   37 1    
    39   18   88 1    
    40   19   20 am   BACKBONE|DICT|INTERRES
    41   19   89 1    
    42   20   21 2    
    43   20   22 1    
    44   22   23 1    
    45   22   24 1    
    46   22   90 1    
    47   23   91 1    
    48   23   92 1    
    49   23   93 1    
    50   24   25 am   BACKBONE|DICT|INTERRES
    51   24   94 1    
    52   25   26 2    
    53   25   27 1    
    54   27   28 1    
    55   27   29 1    
    56   27   95 1    
    57   28   96 1    
    58   28   97 1    
    59   28   98 1    
    60   29   30 am   BACKBONE|DICT|INTERRES
    61   29   99 1    
    62   30   31 2    
    63   30   32 1    
    64   32   33 1    
    65   32   34 1    
    66   32  100 1    
    67   33  101 1    
    68   33  102 1    
    69   33  103 1    
    70   34   35 am   BACKBONE|DICT|INTERRES
    71   34  104 1    
    72   35   36 2    
    73   37   38 2    
    74   37   39 am   BACKBONE|DICT|INTERRES
    75   39   40 1    
    76   39  105 1    
    77   40   41 1    
    78   40   42 1    
    79   40  106 1    
    80   41  107 1    
    81   41  108 1    
    82   41  109 1    
    83   42   43 2    
    84   42   44 am   BACKBONE|DICT|INTERRES
    85   44   45 1    
    86   44  110 1    
    87   45   46 1    
    88   45   47 1    
    89   45  111 1    
    90   46  112 1    
    91   46  113 1    
    92   46  114 1    
    93   47   48 2    
    94   47   49 am   BACKBONE|DICT|INTERRES
    95   49   50 1    
    96   49  115 1    
    97   50   51 1    
    98   50   52 1    
    99   50  116 1    
   100   51  117 1    
   101   51  118 1    
   102   51  119 1    
   103   52   53 2    
   104   52   54 am   BACKBONE|DICT|INTERRES
   105   54   55 1    
   106   54  120 1    
   107   55   56 1    
   108   55   57 1    
   109   55  121 1    
   110   56  122 1    
   111   56  123 1    
   112   56  124 1    
   113   57   58 2    
   114   57   59 am   BACKBONE|DICT|INTERRES
   115   59   60 1    
   116   59  125 1    
   117   60   61 1    
   118   60   62 1    
   119   60  126 1    
   120   61  127 1    
   121   61  128 1    
   122   61  129 1    
   123   62   63 2    
   124   62   64 am   BACKBONE|DICT|INTERRES
   125   64   65 1    
   126   64  130 1    
   127   65   66 1    
   128   65   69 1    
   129   65  131 1    
   130   66   67 am   BACKBONE|DICT|INTERRES
   131   66   68 2    
   132   67  132 1    
   133   67  133 1    
   134   69   70 1    
   135   69  134 1    
   136   69  135 1    
   137   70   71 1    
   138   71  136 1    
   139   71  137 1    
@<TRIPOS>SUBSTRUCTURE
     1 UNK         1 GROUP             0       ****    0 ROOT    
