@<TRIPOS>MOLECULE
3R136
137   139    1
SMALL
USER_CHARGES


@<TRIPOS>ATOM
      1 CA         28.3618   28.3209   -0.9314 C.3       0 UNK        -0.1979 
      2 C          28.4159   26.8341   -0.6175 C.2       0 UNK         0.4864 
      3 O          27.4046   26.2598   -0.2165 O.2       0 UNK        -0.5359 
      4 N          29.5800   26.1993   -0.8100 N.am      1 UNK        -0.4318 
      5 CA         29.8548   24.7783   -0.5394 C.3       1 UNK         0.0824 
      6 C6         31.3485   24.4766   -0.8388 C.3       12 UNK        -0.0944 
      7 S7         31.9085   22.7931   -0.4072 S.3       12 UNK        -0.2672 
      8 C8         32.8156   23.0739    1.1474 C.3       12 UNK         0.0333 
      9 C9         31.9166   23.4698    2.3140 C.ar      12 UNK        -0.0807 
     10 C10        32.2739   24.5477    3.1304 C.ar      12 UNK        -0.0894 
     11 C11        31.4980   24.8843    4.2431 C.ar      12 UNK        -0.0804 
     12 C12        30.3568   24.1350    4.5378 C.ar      12 UNK        -0.0824 
     13 C13        29.9763   23.0644    3.7226 C.ar      12 UNK        -0.0762 
     14 C14        30.7637   22.7341    2.6154 C.ar      12 UNK        -0.0782 
     15 C15        28.7382   22.2409    4.0576 C.3       12 UNK         0.0230 
     16 S16        27.2287   22.8990    3.2740 S.3       12 UNK        -0.2608 
     17 C17        26.9777   24.4457    4.2083 C.3       12 UNK        -0.0989 
     18 CA         27.3546   25.6805    3.3431 C.3       5 UNK         0.0716 
     19 N          26.3488   25.9824    2.3156 N.am      5 UNK        -0.4135 
     20 C          25.1045   26.4388    2.5208 C.2       4 UNK         0.5031 
     21 O          24.6053   26.6242    3.6315 O.2       4 UNK        -0.5229 
     22 CA         24.2778   26.7729    1.2685 C.3       4 UNK         0.0329 
     23 CB         24.5578   28.2151    0.8130 C.3       4 UNK        -0.2001 
     24 N          24.4984   25.8555    0.1464 N.am      4 UNK        -0.4303 
     25 C          24.1160   24.5712    0.1331 C.2       3 UNK         0.5044 
     26 O          23.5900   24.0017    1.0899 O.2       3 UNK        -0.5152 
     27 CA         24.2973   23.8037   -1.1813 C.3       3 UNK         0.0319 
     28 CB         23.1855   24.1951   -2.1781 C.3       3 UNK        -0.2001 
     29 N          25.6264   23.9824   -1.7791 N.am      3 UNK        -0.4354 
     30 C          26.1183   23.1657   -2.7254 C.2       2 UNK         0.4964 
     31 O          25.5094   22.1861   -3.1591 O.2       2 UNK        -0.5047 
     32 CA         27.5053   23.4731   -3.3219 C.3       2 UNK         0.0288 
     33 CB         27.3552   24.2187   -4.6587 C.3       2 UNK        -0.2113 
     34 N          28.4031   24.2350   -2.4548 N.am      2 UNK        -0.4145 
     35 C          28.8980   23.8113   -1.2827 C.2       1 UNK         0.5006 
     36 O          28.6132   22.7232   -0.7798 O.2       1 UNK        -0.5103 
     37 C          27.7226   26.9400    4.1621 C.2       5 UNK         0.5055 
     38 O          27.8804   26.8752    5.3827 O.2       5 UNK        -0.5220 
     39 N          27.8474   28.0710    3.4568 N.am      6 UNK        -0.4450 
     40 CA         28.1694   29.3873    3.9973 C.3       6 UNK         0.0367 
     41 CB         26.8922   30.0657    4.5315 C.3       6 UNK        -0.1929 
     42 C          28.8705   30.1963    2.8991 C.2       6 UNK         0.5070 
     43 O          28.3843   31.2509    2.4897 O.2       6 UNK        -0.5237 
     44 N          30.0003   29.6695    2.4125 N.am      7 UNK        -0.4739 
     45 CA         30.8348   30.2217    1.3386 C.3       7 UNK         0.0276 
     46 CB         31.7052   29.0841    0.7717 C.3       7 UNK        -0.1927 
     47 C          31.6786   31.4376    1.7807 C.2       7 UNK         0.5013 
     48 O          32.8741   31.4990    1.4843 O.2       7 UNK        -0.5193 
     49 N          31.0446   32.3821    2.4891 N.am      8 UNK        -0.4253 
     50 CA         31.6212   33.5993    3.0674 C.3       8 UNK         0.0242 
     51 CB         31.8896   34.6388    1.9543 C.3       8 UNK        -0.2000 
     52 C          32.8435   33.2816    3.9531 C.2       8 UNK         0.4948 
     53 O          32.7313   32.4472    4.8541 O.2       8 UNK        -0.5275 
     54 N          33.9877   33.9187    3.6683 N.am      9 UNK        -0.4246 
     55 CA         35.2561   33.7599    4.3837 C.3       9 UNK         0.0261 
     56 CB         36.2841   34.7527    3.8175 C.3       9 UNK        -0.1959 
     57 C          35.8280   32.3308    4.3700 C.2       9 UNK         0.5033 
     58 O          36.5369   31.9714    5.3112 O.2       9 UNK        -0.5390 
     59 N          35.4962   31.5249    3.3482 N.am      10 UNK        -0.4215 
     60 CA         35.9154   30.1215    3.2490 C.3       10 UNK         0.0240 
     61 CB         35.6661   29.5980    1.8259 C.3       10 UNK        -0.1982 
     62 C          35.2527   29.2069    4.2972 C.2       10 UNK         0.4970 
     63 O          35.8007   28.1413    4.5822 O.2       10 UNK        -0.4916 
     64 N          34.1214   29.6435    4.8661 N.am      11 UNK        -0.4279 
     65 CA         33.4511   29.0086    6.0093 C.3       11 UNK         0.1003 
     66 C          33.7012   29.7661    7.3473 C.2       11 UNK         0.5709 
     67 N          34.6106   30.7330    7.4157 N.am      11 UNK        -0.7358 
     68 O          33.0783   29.4538    8.3595 O.2       11 UNK        -0.4999 
     69 C69        31.9410   28.7794    5.7314 C.3       12 UNK        -0.0954 
     70 S70        31.6449   27.6412    4.3381 S.3       12 UNK        -0.2268 
     71 C71        31.9087   26.0362    5.1467 C.3       12 UNK         0.0203 
     72 H72        29.2892   28.6791   -1.3773 H         1 UNK         0.0888 
     73 H73        27.5510   28.5252   -1.6299 H         1 UNK         0.0888 
     74 H74        28.1778   28.8911   -0.0218 H         1 UNK         0.0888 
     75 H75        30.3647   26.7252   -1.1668 H         1 UNK         0.3017 
     76 H76        29.6841   24.6246    0.5283 H         1 UNK         0.0873 
     77 H77        31.9803   25.1928   -0.3105 H         1 UNK         0.0745 
     78 H78        31.5554   24.6293   -1.8997 H         1 UNK         0.0745 
     79 H79        33.3381   22.1543    1.4136 H         1 UNK         0.0705 
     80 H80        33.5881   23.8250    0.9745 H         1 UNK         0.0705 
     81 H81        33.1656   25.1202    2.9133 H         1 UNK         0.1334 
     82 H82        29.7700   24.3855    5.4102 H         1 UNK         0.1417 
     83 H83        30.4831   21.8968    1.9903 H         1 UNK         0.1562 
     84 H84        28.5977   22.1877    5.1384 H         1 UNK         0.0748 
     85 H85        28.8804   21.2116    3.7247 H         1 UNK         0.0748 
     86 H86        27.5555   24.3942    5.1301 H         1 UNK         0.0940 
     87 H87        25.9375   24.4966    4.5323 H         1 UNK         0.0940 
     88 H88        28.2699   25.4396    2.7992 H         1 UNK         0.0703 
     89 H89        26.6682   25.9105    1.3496 H         1 UNK         0.3081 
     90 H90        23.2240   26.7071    1.5479 H         1 UNK         0.0719 
     91 H91        23.9009   28.5066   -0.0066 H         1 UNK         0.0809 
     92 H92        25.5877   28.3428    0.4791 H         1 UNK         0.0809 
     93 H93        24.3896   28.9215    1.6274 H         1 UNK         0.0809 
     94 H94        24.9417   26.2458   -0.6722 H         1 UNK         0.2990 
     95 H95        24.1785   22.7454   -0.9374 H         1 UNK         0.0690 
     96 H96        23.1752   23.5411   -3.0498 H         1 UNK         0.0788 
     97 H97        23.3038   25.2198   -2.5320 H         1 UNK         0.0788 
     98 H98        22.2001   24.1209   -1.7155 H         1 UNK         0.0788 
     99 H99        26.2116   24.7218   -1.4074 H         1 UNK         0.2993 
    100 H100       27.9844   22.5117   -3.5202 H         1 UNK         0.0949 
    101 H101       28.3189   24.3511   -5.1511 H         1 UNK         0.0767 
    102 H102       26.7168   23.6628   -5.3472 H         1 UNK         0.0767 
    103 H103       26.9070   25.2039   -4.5228 H         1 UNK         0.0767 
    104 H104       28.6798   25.1488   -2.7818 H         1 UNK         0.3013 
    105 H105       27.7151   28.0310    2.4563 H         1 UNK         0.3121 
    106 H106       28.8782   29.2796    4.8213 H         1 UNK         0.0774 
    107 H107       27.1130   31.0569    4.9295 H         1 UNK         0.0815 
    108 H108       26.1424   30.1849    3.7485 H         1 UNK         0.0815 
    109 H109       26.4429   29.4860    5.3380 H         1 UNK         0.0815 
    110 H110       30.3584   28.8331    2.8580 H         1 UNK         0.2987 
    111 H111       30.1784   30.5731    0.5398 H         1 UNK         0.0949 
    112 H112       32.4068   28.7087    1.5169 H         1 UNK         0.0806 
    113 H113       31.0987   28.2432    0.4422 H         1 UNK         0.0806 
    114 H114       32.2872   29.4217   -0.0870 H         1 UNK         0.0806 
    115 H115       30.0578   32.2225    2.6716 H         1 UNK         0.3010 
    116 H116       30.8644   34.0137    3.7351 H         1 UNK         0.0829 
    117 H117       30.9790   34.8486    1.3928 H         1 UNK         0.0813 
    118 H118       32.2276   35.5897    2.3685 H         1 UNK         0.0813 
    119 H119       32.6390   34.2947    1.2401 H         1 UNK         0.0813 
    120 H120       33.9854   34.5673    2.8942 H         1 UNK         0.3038 
    121 H121       35.0713   34.0193    5.4283 H         1 UNK         0.0769 
    122 H122       37.2333   34.6781    4.3505 H         1 UNK         0.0811 
    123 H123       35.9405   35.7824    3.9175 H         1 UNK         0.0811 
    124 H124       36.4880   34.5657    2.7624 H         1 UNK         0.0811 
    125 H125       34.8584   31.8634    2.6369 H         1 UNK         0.3204 
    126 H126       36.9918   30.0858    3.4305 H         1 UNK         0.0748 
    127 H127       36.0511   28.5837    1.7119 H         1 UNK         0.0771 
    128 H128       34.6048   29.5680    1.5861 H         1 UNK         0.0771 
    129 H129       36.1623   30.2187    1.0797 H         1 UNK         0.0771 
    130 H130       33.7503   30.5484    4.6009 H         1 UNK         0.2980 
    131 H131       33.8925   28.0264    6.1819 H         1 UNK         0.0545 
    132 H132       35.1664   30.9930    6.6113 H         1 UNK         0.3459 
    133 H133       34.7580   31.2003    8.2959 H         1 UNK         0.3459 
    134 H134       31.4522   29.7293    5.5072 H         1 UNK         0.0616 
    135 H135       31.4321   28.3767    6.6089 H         1 UNK         0.0616 
    136 H136       32.9618   25.9319    5.4109 H         1 UNK         0.0634 
    137 H137       31.3472   26.0072    6.0818 H         1 UNK         0.0634 
@<TRIPOS>BOND
     1    1    2 1    
     2    1   72 1    
     3    1   73 1    
     4    1   74 1    
     5    2    3 2    
     6    2    4 am   BACKBONE|DICT|INTERRES
     7    4    5 1    
     8    4   75 1    
     9    5    6 1    
    10    5   35 1    
    11    5   76 1    
    12    6    7 1    
    13    6   77 1    
    14    6   78 1    
    15    7    8 1    
    16    8    9 1    
    17    8   79 1    
    18    8   80 1    
    19    9   10 ar   
    20    9   14 ar   
    21   10   11 ar   
    22   10   81 1    
    23   11   12 ar   
    24   11   71 1    
    25   12   13 ar   
    26   12   82 1    
    27   13   14 ar   
    28   13   15 1    
    29   14   83 1    
    30   15   16 1    
    31   15   84 1    
    32   15   85 1    
    33   16   17 1    
    34   17   18 1    
    35   17   86 1    
    36   17   87 1    
    37   18   19 1    
    38   18   37 1    
    39   18   88 1    
    40   19   20 am   BACKBONE|DICT|INTERRES
    41   19   89 1    
    42   20   21 2    
    43   20   22 1    
    44   22   23 1    
    45   22   24 1    
    46   22   90 1    
    47   23   91 1    
    48   23   92 1    
    49   23   93 1    
    50   24   25 am   BACKBONE|DICT|INTERRES
    51   24   94 1    
    52   25   26 2    
    53   25   27 1    
    54   27   28 1    
    55   27   29 1    
    56   27   95 1    
    57   28   96 1    
    58   28   97 1    
    59   28   98 1    
    60   29   30 am   BACKBONE|DICT|INTERRES
    61   29   99 1    
    62   30   31 2    
    63   30   32 1    
    64   32   33 1    
    65   32   34 1    
    66   32  100 1    
    67   33  101 1    
    68   33  102 1    
    69   33  103 1    
    70   34   35 am   BACKBONE|DICT|INTERRES
    71   34  104 1    
    72   35   36 2    
    73   37   38 2    
    74   37   39 am   BACKBONE|DICT|INTERRES
    75   39   40 1    
    76   39  105 1    
    77   40   41 1    
    78   40   42 1    
    79   40  106 1    
    80   41  107 1    
    81   41  108 1    
    82   41  109 1    
    83   42   43 2    
    84   42   44 am   BACKBONE|DICT|INTERRES
    85   44   45 1    
    86   44  110 1    
    87   45   46 1    
    88   45   47 1    
    89   45  111 1    
    90   46  112 1    
    91   46  113 1    
    92   46  114 1    
    93   47   48 2    
    94   47   49 am   BACKBONE|DICT|INTERRES
    95   49   50 1    
    96   49  115 1    
    97   50   51 1    
    98   50   52 1    
    99   50  116 1    
   100   51  117 1    
   101   51  118 1    
   102   51  119 1    
   103   52   53 2    
   104   52   54 am   BACKBONE|DICT|INTERRES
   105   54   55 1    
   106   54  120 1    
   107   55   56 1    
   108   55   57 1    
   109   55  121 1    
   110   56  122 1    
   111   56  123 1    
   112   56  124 1    
   113   57   58 2    
   114   57   59 am   BACKBONE|DICT|INTERRES
   115   59   60 1    
   116   59  125 1    
   117   60   61 1    
   118   60   62 1    
   119   60  126 1    
   120   61  127 1    
   121   61  128 1    
   122   61  129 1    
   123   62   63 2    
   124   62   64 am   BACKBONE|DICT|INTERRES
   125   64   65 1    
   126   64  130 1    
   127   65   66 1    
   128   65   69 1    
   129   65  131 1    
   130   66   67 am   BACKBONE|DICT|INTERRES
   131   66   68 2    
   132   67  132 1    
   133   67  133 1    
   134   69   70 1    
   135   69  134 1    
   136   69  135 1    
   137   70   71 1    
   138   71  136 1    
   139   71  137 1    
@<TRIPOS>SUBSTRUCTURE
     1 UNK         1 GROUP             0       ****    0 ROOT    
