@<TRIPOS>MOLECULE
3R136
137   139    1
SMALL
USER_CHARGES


@<TRIPOS>ATOM
      1 CA         24.3805   28.9932    2.2970 C.3       0 UNK        -0.1979 
      2 C          24.7809   27.6284    2.8347 C.2       0 UNK         0.4864 
      3 O          23.9282   26.9121    3.3627 O.2       0 UNK        -0.5359 
      4 N          26.0626   27.2585    2.7031 N.am      1 UNK        -0.4318 
      5 CA         26.5749   25.9195    3.0230 C.3       1 UNK         0.0824 
      6 C6         28.1225   25.8891    3.0501 C.3       12 UNK        -0.0944 
      7 S7         28.7755   26.7431    4.5220 S.3       12 UNK        -0.2672 
      8 C8         30.4651   26.0526    4.6035 C.3       12 UNK         0.0333 
      9 C9         31.3757   26.4591    3.4433 C.ar      12 UNK        -0.0807 
     10 C10        32.3897   25.5877    3.0326 C.ar      12 UNK        -0.0894 
     11 C11        33.2326   25.9220    1.9677 C.ar      12 UNK        -0.0804 
     12 C12        33.0659   27.1478    1.3171 C.ar      12 UNK        -0.0824 
     13 C13        32.0536   28.0276    1.7107 C.ar      12 UNK        -0.0762 
     14 C14        31.2256   27.6841    2.7816 C.ar      12 UNK        -0.0782 
     15 C15        31.8138   29.3333    0.9614 C.3       12 UNK         0.0230 
     16 S16        31.5422   29.0804   -0.8255 S.3       12 UNK        -0.2608 
     17 C17        30.1731   27.8699   -0.8452 C.3       12 UNK        -0.0989 
     18 CA         28.9273   28.3727   -1.6245 C.3       5 UNK         0.0716 
     19 N          28.1619   27.2649   -2.1872 N.am      5 UNK        -0.4135 
     20 C          28.4825   26.5943   -3.2971 C.2       4 UNK         0.5031 
     21 O          29.4592   26.8549   -4.0020 O.2       4 UNK        -0.5229 
     22 CA         27.6119   25.3758   -3.6164 C.3       4 UNK         0.0329 
     23 CB         27.7446   24.8979   -5.0759 C.3       4 UNK        -0.2001 
     24 N          28.0206   24.3115   -2.7047 N.am      4 UNK        -0.4303 
     25 C          27.2086   23.3998   -2.1609 C.2       3 UNK         0.5044 
     26 O          26.0113   23.3142   -2.4388 O.2       3 UNK        -0.5152 
     27 CA         27.8305   22.4200   -1.1406 C.3       3 UNK         0.0319 
     28 CB         29.3533   22.5881   -0.9455 C.3       3 UNK        -0.2001 
     29 N          27.1758   22.5673    0.1590 N.am      3 UNK        -0.4354 
     30 C          26.0082   22.0115    0.5088 C.2       2 UNK         0.4964 
     31 O          25.4161   21.1773   -0.1781 O.2       2 UNK        -0.5047 
     32 CA         25.3874   22.4321    1.8577 C.3       2 UNK         0.0288 
     33 CB         25.3931   21.2504    2.8437 C.3       2 UNK        -0.2113 
     34 N          25.9962   23.5948    2.5197 N.am      2 UNK        -0.4145 
     35 C          26.0129   24.8535    2.0553 C.2       1 UNK         0.5006 
     36 O          25.6287   25.1730    0.9273 O.2       1 UNK        -0.5103 
     37 C          27.9931   29.2277   -0.7508 C.2       5 UNK         0.5055 
     38 O          26.8352   28.8582   -0.5317 O.2       5 UNK        -0.5220 
     39 N          28.5283   30.3538   -0.2673 N.am      6 UNK        -0.4450 
     40 CA         27.8932   31.2777    0.6730 C.3       6 UNK         0.0367 
     41 CB         28.7701   32.5399    0.7700 C.3       6 UNK        -0.1929 
     42 C          27.6827   30.6605    2.0691 C.2       6 UNK         0.5070 
     43 O          28.1710   29.5657    2.3537 O.2       6 UNK        -0.5237 
     44 N          26.9621   31.3939    2.9279 N.am      7 UNK        -0.4739 
     45 CA         26.7458   31.0425    4.3368 C.3       7 UNK         0.0276 
     46 CB         25.5797   31.8781    4.8912 C.3       7 UNK        -0.1927 
     47 C          27.9998   31.2338    5.2105 C.2       7 UNK         0.5013 
     48 O          28.0850   30.6306    6.2808 O.2       7 UNK        -0.5193 
     49 N          28.9384   32.0751    4.7533 N.am      8 UNK        -0.4253 
     50 CA         30.2454   32.2840    5.3708 C.3       8 UNK         0.0242 
     51 CB         30.8880   33.5542    4.7884 C.3       8 UNK        -0.2000 
     52 C          31.1323   31.0562    5.1248 C.2       8 UNK         0.4948 
     53 O          31.4437   30.7588    3.9693 O.2       8 UNK        -0.5275 
     54 N          31.5146   30.3644    6.2044 N.am      9 UNK        -0.4246 
     55 CA         32.3000   29.1302    6.1788 C.3       9 UNK         0.0261 
     56 CB         32.1151   28.3872    7.5147 C.3       9 UNK        -0.1959 
     57 C          33.7796   29.3833    5.8419 C.2       9 UNK         0.5033 
     58 O          34.6445   29.2280    6.7062 O.2       9 UNK        -0.5390 
     59 N          34.0434   29.7676    4.5863 N.am      10 UNK        -0.4215 
     60 CA         35.3699   30.0818    4.0413 C.3       10 UNK         0.0240 
     61 CB         35.2272   30.5076    2.5719 C.3       10 UNK        -0.1982 
     62 C          36.3942   28.9391    4.1664 C.2       10 UNK         0.4970 
     63 O          37.5839   29.2142    4.3278 O.2       10 UNK        -0.4916 
     64 N          35.9143   27.6909    4.1103 N.am      11 UNK        -0.4279 
     65 CA         36.7096   26.4766    4.3427 C.3       11 UNK         0.1003 
     66 C          37.0020   26.1762    5.8435 C.2       11 UNK         0.5709 
     67 N          36.4684   26.9230    6.8041 N.am      11 UNK        -0.7358 
     68 O          37.7454   25.2455    6.1456 O.2       11 UNK        -0.4999 
     69 C69        36.0939   25.2452    3.6289 C.3       12 UNK        -0.0954 
     70 S70        35.9815   25.4809    1.8233 S.3       12 UNK        -0.2268 
     71 C71        34.2817   24.9341    1.4759 C.3       12 UNK         0.0203 
     72 H72        23.4403   28.9194    1.7511 H         1 UNK         0.0888 
     73 H73        24.2432   29.6970    3.1157 H         1 UNK         0.0888 
     74 H74        25.1275   29.3911    1.6122 H         1 UNK         0.0888 
     75 H75        26.7354   27.9021    2.3011 H         1 UNK         0.3017 
     76 H76        26.2081   25.6626    4.0197 H         1 UNK         0.0873 
     77 H77        28.5391   26.3498    2.1521 H         1 UNK         0.0745 
     78 H78        28.4964   24.8635    3.0713 H         1 UNK         0.0745 
     79 H79        30.3886   24.9655    4.6569 H         1 UNK         0.0705 
     80 H80        30.9250   26.3686    5.5395 H         1 UNK         0.0705 
     81 H81        32.5118   24.6361    3.5319 H         1 UNK         0.1334 
     82 H82        33.7041   27.4029    0.4819 H         1 UNK         0.1417 
     83 H83        30.4479   28.3725    3.0855 H         1 UNK         0.1562 
     84 H84        30.9527   29.8612    1.3746 H         1 UNK         0.0748 
     85 H85        32.6693   29.9933    1.1008 H         1 UNK         0.0748 
     86 H86        29.9000   27.5621    0.1658 H         1 UNK         0.0940 
     87 H87        30.5796   26.9729   -1.3146 H         1 UNK         0.0940 
     88 H88        29.2472   29.0041   -2.4568 H         1 UNK         0.0703 
     89 H89        27.3190   27.0392   -1.6726 H         1 UNK         0.3081 
     90 H90        26.5713   25.6539   -3.4336 H         1 UNK         0.0719 
     91 H91        27.4882   25.6972   -5.7724 H         1 UNK         0.0809 
     92 H92        28.7606   24.5749   -5.3064 H         1 UNK         0.0809 
     93 H93        27.0749   24.0623   -5.2798 H         1 UNK         0.0809 
     94 H94        28.9910   24.3267   -2.4220 H         1 UNK         0.2990 
     95 H95        27.6538   21.4112   -1.5196 H         1 UNK         0.0690 
     96 H96        29.7392   21.8422   -0.2501 H         1 UNK         0.0788 
     97 H97        29.6146   23.5698   -0.5476 H         1 UNK         0.0788 
     98 H98        29.8922   22.4481   -1.8838 H         1 UNK         0.0788 
     99 H99        27.5680   23.2553    0.7834 H         1 UNK         0.2993 
    100 H100       24.3478   22.6921    1.6464 H         1 UNK         0.0949 
    101 H101       26.4083   20.9574    3.1146 H         1 UNK         0.0767 
    102 H102       24.8559   21.4940    3.7607 H         1 UNK         0.0767 
    103 H103       24.9060   20.3747    2.4120 H         1 UNK         0.0767 
    104 H104       26.3568   23.4263    3.4483 H         1 UNK         0.3013 
    105 H105       29.5005   30.5308   -0.4784 H         1 UNK         0.3121 
    106 H106       26.9151   31.5501    0.2712 H         1 UNK         0.0774 
    107 H107       28.3007   33.3079    1.3856 H         1 UNK         0.0815 
    108 H108       29.7449   32.3204    1.2089 H         1 UNK         0.0815 
    109 H109       28.9379   32.9828   -0.2120 H         1 UNK         0.0815 
    110 H110       26.5748   32.2739    2.6167 H         1 UNK         0.2987 
    111 H111       26.4745   29.9858    4.3927 H         1 UNK         0.0949 
    112 H112       24.6671   31.7298    4.3147 H         1 UNK         0.0806 
    113 H113       25.3579   31.5994    5.9224 H         1 UNK         0.0806 
    114 H114       25.8089   32.9445    4.8855 H         1 UNK         0.0806 
    115 H115       28.7919   32.4982    3.8500 H         1 UNK         0.3010 
    116 H116       30.1078   32.4283    6.4447 H         1 UNK         0.0829 
    117 H117       31.0338   33.4779    3.7099 H         1 UNK         0.0813 
    118 H118       31.8660   33.7353    5.2364 H         1 UNK         0.0813 
    119 H119       30.2748   34.4344    4.9827 H         1 UNK         0.0813 
    120 H120       31.2224   30.6885    7.1152 H         1 UNK         0.3038 
    121 H121       31.8993   28.4935    5.3912 H         1 UNK         0.0769 
    122 H122       31.0675   28.1400    7.6884 H         1 UNK         0.0811 
    123 H123       32.4664   28.9798    8.3603 H         1 UNK         0.0811 
    124 H124       32.6726   27.4495    7.5196 H         1 UNK         0.0811 
    125 H125       33.2405   29.9477    3.9885 H         1 UNK         0.3204 
    126 H126       35.7564   30.9303    4.6094 H         1 UNK         0.0748 
    127 H127       34.8776   29.6838    1.9487 H         1 UNK         0.0771 
    128 H128       34.5286   31.3375    2.4615 H         1 UNK         0.0771 
    129 H129       36.1857   30.8353    2.1671 H         1 UNK         0.0771 
    130 H130       34.9265   27.5548    3.9576 H         1 UNK         0.2980 
    131 H131       37.6910   26.6414    3.8936 H         1 UNK         0.0545 
    132 H132       36.6833   26.7050    7.7637 H         1 UNK         0.3459 
    133 H133       35.8681   27.7147    6.5957 H         1 UNK         0.3459 
    134 H134       35.1085   25.0233    4.0410 H         1 UNK         0.0616 
    135 H135       36.7024   24.3552    3.7990 H         1 UNK         0.0616 
    136 H136       34.1259   23.9462    1.9121 H         1 UNK         0.0634 
    137 H137       34.1710   24.8099    0.3978 H         1 UNK         0.0634 
@<TRIPOS>BOND
     1    1    2 1    
     2    1   72 1    
     3    1   73 1    
     4    1   74 1    
     5    2    3 2    
     6    2    4 am   BACKBONE|DICT|INTERRES
     7    4    5 1    
     8    4   75 1    
     9    5    6 1    
    10    5   35 1    
    11    5   76 1    
    12    6    7 1    
    13    6   77 1    
    14    6   78 1    
    15    7    8 1    
    16    8    9 1    
    17    8   79 1    
    18    8   80 1    
    19    9   10 ar   
    20    9   14 ar   
    21   10   11 ar   
    22   10   81 1    
    23   11   12 ar   
    24   11   71 1    
    25   12   13 ar   
    26   12   82 1    
    27   13   14 ar   
    28   13   15 1    
    29   14   83 1    
    30   15   16 1    
    31   15   84 1    
    32   15   85 1    
    33   16   17 1    
    34   17   18 1    
    35   17   86 1    
    36   17   87 1    
    37   18   19 1    
    38   18   37 1    
    39   18   88 1    
    40   19   20 am   BACKBONE|DICT|INTERRES
    41   19   89 1    
    42   20   21 2    
    43   20   22 1    
    44   22   23 1    
    45   22   24 1    
    46   22   90 1    
    47   23   91 1    
    48   23   92 1    
    49   23   93 1    
    50   24   25 am   BACKBONE|DICT|INTERRES
    51   24   94 1    
    52   25   26 2    
    53   25   27 1    
    54   27   28 1    
    55   27   29 1    
    56   27   95 1    
    57   28   96 1    
    58   28   97 1    
    59   28   98 1    
    60   29   30 am   BACKBONE|DICT|INTERRES
    61   29   99 1    
    62   30   31 2    
    63   30   32 1    
    64   32   33 1    
    65   32   34 1    
    66   32  100 1    
    67   33  101 1    
    68   33  102 1    
    69   33  103 1    
    70   34   35 am   BACKBONE|DICT|INTERRES
    71   34  104 1    
    72   35   36 2    
    73   37   38 2    
    74   37   39 am   BACKBONE|DICT|INTERRES
    75   39   40 1    
    76   39  105 1    
    77   40   41 1    
    78   40   42 1    
    79   40  106 1    
    80   41  107 1    
    81   41  108 1    
    82   41  109 1    
    83   42   43 2    
    84   42   44 am   BACKBONE|DICT|INTERRES
    85   44   45 1    
    86   44  110 1    
    87   45   46 1    
    88   45   47 1    
    89   45  111 1    
    90   46  112 1    
    91   46  113 1    
    92   46  114 1    
    93   47   48 2    
    94   47   49 am   BACKBONE|DICT|INTERRES
    95   49   50 1    
    96   49  115 1    
    97   50   51 1    
    98   50   52 1    
    99   50  116 1    
   100   51  117 1    
   101   51  118 1    
   102   51  119 1    
   103   52   53 2    
   104   52   54 am   BACKBONE|DICT|INTERRES
   105   54   55 1    
   106   54  120 1    
   107   55   56 1    
   108   55   57 1    
   109   55  121 1    
   110   56  122 1    
   111   56  123 1    
   112   56  124 1    
   113   57   58 2    
   114   57   59 am   BACKBONE|DICT|INTERRES
   115   59   60 1    
   116   59  125 1    
   117   60   61 1    
   118   60   62 1    
   119   60  126 1    
   120   61  127 1    
   121   61  128 1    
   122   61  129 1    
   123   62   63 2    
   124   62   64 am   BACKBONE|DICT|INTERRES
   125   64   65 1    
   126   64  130 1    
   127   65   66 1    
   128   65   69 1    
   129   65  131 1    
   130   66   67 am   BACKBONE|DICT|INTERRES
   131   66   68 2    
   132   67  132 1    
   133   67  133 1    
   134   69   70 1    
   135   69  134 1    
   136   69  135 1    
   137   70   71 1    
   138   71  136 1    
   139   71  137 1    
@<TRIPOS>SUBSTRUCTURE
     1 UNK         1 GROUP             0       ****    0 ROOT    
