@<TRIPOS>MOLECULE
3R136
137   139    1
SMALL
USER_CHARGES


@<TRIPOS>ATOM
      1 CA         30.4219   23.0299    5.8835 C.3       0 UNK        -0.1979 
      2 C          29.3065   22.8764    4.8601 C.2       0 UNK         0.4864 
      3 O          28.1961   22.4803    5.2149 O.2       0 UNK        -0.5359 
      4 N          29.5935   23.1965    3.5917 N.am      1 UNK        -0.4318 
      5 CA         28.6697   23.0942    2.4517 C.3       1 UNK         0.0824 
      6 C6         29.4374   23.0443    1.1071 C.3       12 UNK        -0.0944 
      7 S7         30.6189   21.6561    1.0491 S.3       12 UNK        -0.2672 
      8 C8         31.8497   22.2654   -0.1449 C.3       12 UNK         0.0333 
      9 C9         32.6881   23.4159    0.3988 C.ar      12 UNK        -0.0807 
     10 C10        33.5124   23.2263    1.5132 C.ar      12 UNK        -0.0894 
     11 C11        34.3291   24.2612    1.9800 C.ar      12 UNK        -0.0804 
     12 C12        34.3294   25.4883    1.3101 C.ar      12 UNK        -0.0824 
     13 C13        33.4940   25.6982    0.2095 C.ar      12 UNK        -0.0762 
     14 C14        32.6742   24.6591   -0.2412 C.ar      12 UNK        -0.0782 
     15 C15        33.5040   27.0388   -0.5105 C.3       12 UNK         0.0230 
     16 S16        32.6707   28.3468    0.4453 S.3       12 UNK        -0.2608 
     17 C17        30.9220   27.8237    0.3718 C.3       12 UNK        -0.0989 
     18 CA         30.1787   28.2171   -0.9275 C.3       5 UNK         0.0716 
     19 N          28.9274   27.4679   -1.0139 N.am      5 UNK        -0.4135 
     20 C          28.3569   27.0210   -2.1399 C.2       4 UNK         0.5031 
     21 O          28.8821   27.0980   -3.2516 O.2       4 UNK        -0.5229 
     22 CA         26.9628   26.3716   -2.0117 C.3       4 UNK         0.0329 
     23 CB         27.0883   24.8416   -1.9533 C.3       4 UNK        -0.2001 
     24 N          26.2260   26.8391   -0.8342 N.am      4 UNK        -0.4303 
     25 C          25.7323   28.0786   -0.6987 C.2       3 UNK         0.5044 
     26 O          25.6622   28.8799   -1.6316 O.2       3 UNK        -0.5152 
     27 CA         25.2431   28.5218    0.6970 C.3       3 UNK         0.0319 
     28 CB         23.7331   28.8146    0.6768 C.3       3 UNK        -0.2001 
     29 N          25.5259   27.6061    1.8095 N.am      3 UNK        -0.4354 
     30 C          26.7309   27.1988    2.2330 C.2       2 UNK         0.4964 
     31 O          27.7847   27.4693    1.6560 O.2       2 UNK        -0.5047 
     32 CA         26.7715   26.3230    3.5020 C.3       2 UNK         0.0288 
     33 CB         25.3842   25.8718    4.0147 C.3       2 UNK        -0.2113 
     34 N          27.6588   25.1673    3.3483 N.am      2 UNK        -0.4145 
     35 C          27.5859   24.1987    2.4221 C.2       1 UNK         0.5006 
     36 O          26.7112   24.1532    1.5541 O.2       1 UNK        -0.5103 
     37 C          29.8814   29.7318   -0.9998 C.2       5 UNK         0.5055 
     38 O          28.7324   30.1539   -0.8453 O.2       5 UNK        -0.5220 
     39 N          30.9335   30.5306   -1.2268 N.am      6 UNK        -0.4450 
     40 CA         30.8831   31.9961   -1.2411 C.3       6 UNK         0.0367 
     41 CB         32.2023   32.5462   -1.8064 C.3       6 UNK        -0.1929 
     42 C          30.5941   32.6038    0.1444 C.2       6 UNK         0.5070 
     43 O          29.9407   33.6447    0.2221 O.2       6 UNK        -0.5237 
     44 N          31.0698   31.9420    1.2073 N.am      7 UNK        -0.4739 
     45 CA         30.7190   32.2452    2.5939 C.3       7 UNK         0.0276 
     46 CB         31.8995   31.8720    3.5064 C.3       7 UNK        -0.1927 
     47 C          29.4745   31.4314    2.9670 C.2       7 UNK         0.5013 
     48 O          29.4489   30.2329    2.6903 O.2       7 UNK        -0.5193 
     49 N          28.4904   32.0645    3.6194 N.am      8 UNK        -0.4253 
     50 CA         27.1850   31.4710    3.9480 C.3       8 UNK         0.0242 
     51 CB         26.2826   32.5455    4.5758 C.3       8 UNK        -0.2000 
     52 C          27.2328   30.2198    4.8469 C.2       8 UNK         0.4948 
     53 O          26.3266   29.3916    4.7626 O.2       8 UNK        -0.5275 
     54 N          28.2769   30.1000    5.6774 N.am      9 UNK        -0.4246 
     55 CA         28.5474   28.9281    6.5175 C.3       9 UNK         0.0261 
     56 CB         29.0683   29.4141    7.8812 C.3       9 UNK        -0.1959 
     57 C          29.5560   27.9512    5.8794 C.2       9 UNK         0.5033 
     58 O          29.7401   26.8599    6.4203 O.2       9 UNK        -0.5390 
     59 N          30.1810   28.3552    4.7622 N.am      10 UNK        -0.4215 
     60 CA         31.3009   27.7302    4.0499 C.3       10 UNK         0.0240 
     61 CB         30.9237   26.3329    3.5207 C.3       10 UNK        -0.1982 
     62 C          32.6233   27.6906    4.8353 C.2       10 UNK         0.4970 
     63 O          32.6603   27.9169    6.0461 O.2       10 UNK        -0.4916 
     64 N          33.6954   27.3985    4.0898 N.am      11 UNK        -0.4279 
     65 CA         35.0594   27.1334    4.5786 C.3       11 UNK         0.1003 
     66 C          35.7804   28.3475    5.2401 C.2       11 UNK         0.5709 
     67 N          35.3314   29.5781    5.0234 N.am      11 UNK        -0.7358 
     68 O          36.7838   28.1798    5.9297 O.2       11 UNK        -0.4999 
     69 C69        35.1599   25.8310    5.4292 C.3       12 UNK        -0.0954 
     70 S70        34.2938   24.3753    4.7363 S.3       12 UNK        -0.2268 
     71 C71        35.2131   24.0423    3.2002 C.3       12 UNK         0.0203 
     72 H72        30.1884   23.8417    6.5726 H         1 UNK         0.0888 
     73 H73        30.5340   22.1122    6.4601 H         1 UNK         0.0888 
     74 H74        31.3797   23.2510    5.4123 H         1 UNK         0.0888 
     75 H75        30.5347   23.4752    3.3532 H         1 UNK         0.3017 
     76 H76        28.1275   22.1516    2.5552 H         1 UNK         0.0873 
     77 H77        28.7476   22.9155    0.2716 H         1 UNK         0.0745 
     78 H78        29.9632   23.9853    0.9343 H         1 UNK         0.0745 
     79 H79        31.3387   22.5510   -1.0658 H         1 UNK         0.0705 
     80 H80        32.5156   21.4427   -0.4086 H         1 UNK         0.0705 
     81 H81        33.5202   22.2682    2.0151 H         1 UNK         0.1334 
     82 H82        34.9798   26.2854    1.6380 H         1 UNK         0.1417 
     83 H83        32.0399   24.8129   -1.1038 H         1 UNK         0.1562 
     84 H84        33.0424   26.9560   -1.4955 H         1 UNK         0.0748 
     85 H85        34.5373   27.3409   -0.6874 H         1 UNK         0.0748 
     86 H86        30.3939   28.2369    1.2316 H         1 UNK         0.0940 
     87 H87        30.8868   26.7425    0.5087 H         1 UNK         0.0940 
     88 H88        30.8046   27.9548   -1.7827 H         1 UNK         0.0703 
     89 H89        28.3966   27.4282   -0.1467 H         1 UNK         0.3081 
     90 H90        26.3903   26.6353   -2.9035 H         1 UNK         0.0719 
     91 H91        27.6029   24.4572   -2.8351 H         1 UNK         0.0809 
     92 H92        27.6542   24.5207   -1.0791 H         1 UNK         0.0809 
     93 H93        26.1098   24.3627   -1.9137 H         1 UNK         0.0809 
     94 H94        26.2353   26.2371   -0.0215 H         1 UNK         0.2990 
     95 H95        25.7659   29.4546    0.9189 H         1 UNK         0.0690 
     96 H96        23.3978   29.2411    1.6226 H         1 UNK         0.0788 
     97 H97        23.1512   27.9116    0.4879 H         1 UNK         0.0788 
     98 H98        23.4815   29.5335   -0.1044 H         1 UNK         0.0788 
     99 H99        24.7249   27.3037    2.3446 H         1 UNK         0.2993 
    100 H100       27.2219   26.9443    4.2755 H         1 UNK         0.0949 
    101 H101       25.4823   25.2593    4.9112 H         1 UNK         0.0767 
    102 H102       24.7645   26.7275    4.2866 H         1 UNK         0.0767 
    103 H103       24.8428   25.2825    3.2733 H         1 UNK         0.0767 
    104 H104       28.4235   25.1173    4.0052 H         1 UNK         0.3013 
    105 H105       31.8463   30.1058   -1.3171 H         1 UNK         0.3121 
    106 H106       30.0727   32.2983   -1.9081 H         1 UNK         0.0774 
    107 H107       32.3810   32.1872   -2.8201 H         1 UNK         0.0815 
    108 H108       32.1825   33.6362   -1.8494 H         1 UNK         0.0815 
    109 H109       33.0569   32.2604   -1.1916 H         1 UNK         0.0815 
    110 H110       31.5380   31.0613    1.0480 H         1 UNK         0.2987 
    111 H111       30.5106   33.3118    2.7058 H         1 UNK         0.0949 
    112 H112       32.7904   32.4468    3.2527 H         1 UNK         0.0806 
    113 H113       31.6680   32.0795    4.5520 H         1 UNK         0.0806 
    114 H114       32.1534   30.8142    3.4309 H         1 UNK         0.0806 
    115 H115       28.6012   33.0466    3.8294 H         1 UNK         0.3010 
    116 H116       26.7322   31.1575    3.0045 H         1 UNK         0.0829 
    117 H117       26.7006   32.9307    5.5067 H         1 UNK         0.0813 
    118 H118       25.2953   32.1412    4.8052 H         1 UNK         0.0813 
    119 H119       26.1345   33.3869    3.8986 H         1 UNK         0.0813 
    120 H120       28.9548   30.8480    5.7046 H         1 UNK         0.3038 
    121 H121       27.6234   28.3716    6.6889 H         1 UNK         0.0769 
    122 H122       28.3496   30.0727    8.3692 H         1 UNK         0.0811 
    123 H123       30.0108   29.9547    7.7847 H         1 UNK         0.0811 
    124 H124       29.2438   28.5737    8.5543 H         1 UNK         0.0811 
    125 H125       29.8573   29.2141    4.3292 H         1 UNK         0.3204 
    126 H126       31.4837   28.3807    3.1965 H         1 UNK         0.0748 
    127 H127       30.7568   25.6327    4.3373 H         1 UNK         0.0771 
    128 H128       30.0238   26.3794    2.9106 H         1 UNK         0.0771 
    129 H129       31.7104   25.9134    2.8925 H         1 UNK         0.0771 
    130 H130       33.5599   27.2623    3.0991 H         1 UNK         0.2980 
    131 H131       35.6490   26.9618    3.6801 H         1 UNK         0.0545 
    132 H132       35.8102   30.3585    5.4444 H         1 UNK         0.3459 
    133 H133       34.5151   29.7308    4.4551 H         1 UNK         0.3459 
    134 H134       34.7482   26.0070    6.4244 H         1 UNK         0.0616 
    135 H135       36.2052   25.5565    5.5815 H         1 UNK         0.0616 
    136 H136       35.5640   23.0095    3.2208 H         1 UNK         0.0634 
    137 H137       36.1084   24.6624    3.1438 H         1 UNK         0.0634 
@<TRIPOS>BOND
     1    1    2 1    
     2    1   72 1    
     3    1   73 1    
     4    1   74 1    
     5    2    3 2    
     6    2    4 am   BACKBONE|DICT|INTERRES
     7    4    5 1    
     8    4   75 1    
     9    5    6 1    
    10    5   35 1    
    11    5   76 1    
    12    6    7 1    
    13    6   77 1    
    14    6   78 1    
    15    7    8 1    
    16    8    9 1    
    17    8   79 1    
    18    8   80 1    
    19    9   10 ar   
    20    9   14 ar   
    21   10   11 ar   
    22   10   81 1    
    23   11   12 ar   
    24   11   71 1    
    25   12   13 ar   
    26   12   82 1    
    27   13   14 ar   
    28   13   15 1    
    29   14   83 1    
    30   15   16 1    
    31   15   84 1    
    32   15   85 1    
    33   16   17 1    
    34   17   18 1    
    35   17   86 1    
    36   17   87 1    
    37   18   19 1    
    38   18   37 1    
    39   18   88 1    
    40   19   20 am   BACKBONE|DICT|INTERRES
    41   19   89 1    
    42   20   21 2    
    43   20   22 1    
    44   22   23 1    
    45   22   24 1    
    46   22   90 1    
    47   23   91 1    
    48   23   92 1    
    49   23   93 1    
    50   24   25 am   BACKBONE|DICT|INTERRES
    51   24   94 1    
    52   25   26 2    
    53   25   27 1    
    54   27   28 1    
    55   27   29 1    
    56   27   95 1    
    57   28   96 1    
    58   28   97 1    
    59   28   98 1    
    60   29   30 am   BACKBONE|DICT|INTERRES
    61   29   99 1    
    62   30   31 2    
    63   30   32 1    
    64   32   33 1    
    65   32   34 1    
    66   32  100 1    
    67   33  101 1    
    68   33  102 1    
    69   33  103 1    
    70   34   35 am   BACKBONE|DICT|INTERRES
    71   34  104 1    
    72   35   36 2    
    73   37   38 2    
    74   37   39 am   BACKBONE|DICT|INTERRES
    75   39   40 1    
    76   39  105 1    
    77   40   41 1    
    78   40   42 1    
    79   40  106 1    
    80   41  107 1    
    81   41  108 1    
    82   41  109 1    
    83   42   43 2    
    84   42   44 am   BACKBONE|DICT|INTERRES
    85   44   45 1    
    86   44  110 1    
    87   45   46 1    
    88   45   47 1    
    89   45  111 1    
    90   46  112 1    
    91   46  113 1    
    92   46  114 1    
    93   47   48 2    
    94   47   49 am   BACKBONE|DICT|INTERRES
    95   49   50 1    
    96   49  115 1    
    97   50   51 1    
    98   50   52 1    
    99   50  116 1    
   100   51  117 1    
   101   51  118 1    
   102   51  119 1    
   103   52   53 2    
   104   52   54 am   BACKBONE|DICT|INTERRES
   105   54   55 1    
   106   54  120 1    
   107   55   56 1    
   108   55   57 1    
   109   55  121 1    
   110   56  122 1    
   111   56  123 1    
   112   56  124 1    
   113   57   58 2    
   114   57   59 am   BACKBONE|DICT|INTERRES
   115   59   60 1    
   116   59  125 1    
   117   60   61 1    
   118   60   62 1    
   119   60  126 1    
   120   61  127 1    
   121   61  128 1    
   122   61  129 1    
   123   62   63 2    
   124   62   64 am   BACKBONE|DICT|INTERRES
   125   64   65 1    
   126   64  130 1    
   127   65   66 1    
   128   65   69 1    
   129   65  131 1    
   130   66   67 am   BACKBONE|DICT|INTERRES
   131   66   68 2    
   132   67  132 1    
   133   67  133 1    
   134   69   70 1    
   135   69  134 1    
   136   69  135 1    
   137   70   71 1    
   138   71  136 1    
   139   71  137 1    
@<TRIPOS>SUBSTRUCTURE
     1 UNK         1 GROUP             0       ****    0 ROOT    
