@<TRIPOS>MOLECULE
3R136
137   139    1
SMALL
USER_CHARGES


@<TRIPOS>ATOM
      1 CA         24.1781   23.6653    4.0286 C.3       0 UNK        -0.1979 
      2 C          25.2303   23.6436    2.9306 C.2       0 UNK         0.4864 
      3 O          25.3133   24.5945    2.1511 O.2       0 UNK        -0.5359 
      4 N          26.0282   22.5663    2.8645 N.am      1 UNK        -0.4318 
      5 CA         27.1034   22.3383    1.8887 C.3       1 UNK         0.0824 
      6 C6         28.3065   23.2966    2.0893 C.3       12 UNK        -0.0944 
      7 S7         29.1824   23.0350    3.6643 S.3       12 UNK        -0.2672 
      8 C8         30.8078   22.4674    3.0714 C.3       12 UNK         0.0333 
      9 C9         31.6797   23.6075    2.5540 C.ar      12 UNK        -0.0807 
     10 C10        32.4363   24.3648    3.4542 C.ar      12 UNK        -0.0894 
     11 C11        33.3222   25.3449    2.9957 C.ar      12 UNK        -0.0804 
     12 C12        33.4364   25.5715    1.6203 C.ar      12 UNK        -0.0824 
     13 C13        32.6738   24.8373    0.7071 C.ar      12 UNK        -0.0762 
     14 C14        31.7931   23.8581    1.1805 C.ar      12 UNK        -0.0782 
     15 C15        32.8844   25.0410   -0.7890 C.3       12 UNK         0.0230 
     16 S16        32.4762   26.7309   -1.3424 S.3       12 UNK        -0.2608 
     17 C17        30.7735   26.5500   -1.9700 C.3       12 UNK        -0.0989 
     18 CA         29.7585   27.3957   -1.1657 C.3       5 UNK         0.0716 
     19 N          28.5265   27.6180   -1.9089 N.am      5 UNK        -0.4135 
     20 C          28.1432   28.7638   -2.4827 C.2       4 UNK         0.5031 
     21 O          28.8653   29.7554   -2.5930 O.2       4 UNK        -0.5229 
     22 CA         26.6974   28.8219   -3.0126 C.3       4 UNK         0.0329 
     23 CB         26.6698   28.5690   -4.5286 C.3       4 UNK        -0.2001 
     24 N          25.8100   27.8607   -2.3511 N.am      4 UNK        -0.4303 
     25 C          25.3760   27.9408   -1.0863 C.2       3 UNK         0.5044 
     26 O          25.5975   28.9015   -0.3491 O.2       3 UNK        -0.5152 
     27 CA         24.5964   26.7314   -0.5374 C.3       3 UNK         0.0319 
     28 CB         23.1576   26.6855   -1.0875 C.3       3 UNK        -0.2001 
     29 N          25.2927   25.4462   -0.7075 N.am      3 UNK        -0.4354 
     30 C          25.5968   24.7936   -1.8429 C.2       2 UNK         0.4964 
     31 O          25.2599   25.1875   -2.9608 O.2       2 UNK        -0.5047 
     32 CA         26.4571   23.5203   -1.7410 C.3       2 UNK         0.0288 
     33 CB         27.6642   23.5950   -2.6949 C.3       2 UNK        -0.2113 
     34 N          26.9555   23.3081   -0.3820 N.am      2 UNK        -0.4145 
     35 C          26.5324   22.3475    0.4518 C.2       1 UNK         0.5006 
     36 O          25.7066   21.4867    0.1388 O.2       1 UNK        -0.5103 
     37 C          29.3238   26.6983    0.1266 C.2       5 UNK         0.5055 
     38 O          28.5996   25.7009    0.0472 O.2       5 UNK        -0.5220 
     39 N          29.7403   27.2456    1.2706 N.am      6 UNK        -0.4450 
     40 CA         29.4205   26.7830    2.6144 C.3       6 UNK         0.0367 
     41 CB         27.9318   27.0370    2.9368 C.3       6 UNK        -0.1929 
     42 C          30.3066   27.5431    3.6004 C.2       6 UNK         0.5070 
     43 O          30.8194   28.6101    3.2557 O.2       6 UNK        -0.5237 
     44 N          30.4056   27.0308    4.8354 N.am      7 UNK        -0.4739 
     45 CA         31.1396   27.6524    5.9482 C.3       7 UNK         0.0276 
     46 CB         31.0712   26.7375    7.1802 C.3       7 UNK        -0.1927 
     47 C          30.6624   29.0752    6.2979 C.2       7 UNK         0.5013 
     48 O          31.4660   29.8918    6.7500 O.2       7 UNK        -0.5193 
     49 N          29.3847   29.3652    6.0094 N.am      8 UNK        -0.4253 
     50 CA         28.7532   30.6857    6.0898 C.3       8 UNK         0.0242 
     51 CB         27.2599   30.5445    5.7526 C.3       8 UNK        -0.2000 
     52 C          29.4040   31.7638    5.1990 C.2       8 UNK         0.4948 
     53 O          29.2161   32.9491    5.4740 O.2       8 UNK        -0.5275 
     54 N          30.1792   31.3572    4.1802 N.am      9 UNK        -0.4246 
     55 CA         31.0054   32.2453    3.3570 C.3       9 UNK         0.0261 
     56 CB         31.3406   31.5392    2.0314 C.3       9 UNK        -0.1959 
     57 C          32.2950   32.7164    4.0629 C.2       9 UNK         0.5033 
     58 O          33.0267   33.5104    3.4709 O.2       9 UNK        -0.5390 
     59 N          32.5548   32.2295    5.2885 N.am      10 UNK        -0.4215 
     60 CA         33.7261   32.4881    6.1311 C.3       10 UNK         0.0240 
     61 CB         33.8527   33.9837    6.4921 C.3       10 UNK        -0.1982 
     62 C          34.9998   31.8928    5.5109 C.2       10 UNK         0.4970 
     63 O          35.9334   32.6248    5.1762 O.2       10 UNK        -0.4916 
     64 N          34.9890   30.5629    5.3584 N.am      11 UNK        -0.4279 
     65 CA         36.1057   29.7439    4.8660 C.3       11 UNK         0.1003 
     66 C          37.4111   29.9310    5.6897 C.2       11 UNK         0.5709 
     67 N          38.5630   29.9469    5.0347 N.am      11 UNK        -0.7358 
     68 O          37.3886   30.0136    6.9158 O.2       11 UNK        -0.4999 
     69 C69        35.7206   28.2431    4.8299 C.3       12 UNK        -0.0954 
     70 S70        34.3460   27.8700    3.6963 S.3       12 UNK        -0.2268 
     71 C71        34.2243   26.0743    3.9854 C.3       12 UNK         0.0203 
     72 H72        23.1839   23.7576    3.5910 H         1 UNK         0.0888 
     73 H73        24.2007   22.7589    4.6351 H         1 UNK         0.0888 
     74 H74        24.3428   24.5191    4.6865 H         1 UNK         0.0888 
     75 H75        25.8872   21.8138    3.5234 H         1 UNK         0.3017 
     76 H76        27.4609   21.3206    2.0522 H         1 UNK         0.0873 
     77 H77        27.9620   24.3272    2.0736 H         1 UNK         0.0745 
     78 H78        29.0213   23.1975    1.2730 H         1 UNK         0.0745 
     79 H79        30.6730   21.7044    2.3031 H         1 UNK         0.0705 
     80 H80        31.3200   21.9699    3.8963 H         1 UNK         0.0705 
     81 H81        32.3623   24.1604    4.5138 H         1 UNK         0.1334 
     82 H82        34.1419   26.3049    1.2543 H         1 UNK         0.1417 
     83 H83        31.2282   23.2630    0.4766 H         1 UNK         0.1562 
     84 H84        32.3285   24.3054   -1.3716 H         1 UNK         0.0748 
     85 H85        33.9367   24.8577   -1.0112 H         1 UNK         0.0748 
     86 H86        30.4789   25.4998   -2.0130 H         1 UNK         0.0940 
     87 H87        30.7895   26.8901   -3.0069 H         1 UNK         0.0940 
     88 H88        30.2064   28.3605   -0.9147 H         1 UNK         0.0703 
     89 H89        27.8471   26.8764   -1.8121 H         1 UNK         0.3081 
     90 H90        26.3153   29.8273   -2.8226 H         1 UNK         0.0719 
     91 H91        27.3076   29.2804   -5.0553 H         1 UNK         0.0809 
     92 H92        27.0220   27.5666   -4.7776 H         1 UNK         0.0809 
     93 H93        25.6623   28.6802   -4.9308 H         1 UNK         0.0809 
     94 H94        25.5785   27.0112   -2.8619 H         1 UNK         0.2990 
     95 H95        24.5235   26.8744    0.5421 H         1 UNK         0.0690 
     96 H96        22.5903   25.8705   -0.6383 H         1 UNK         0.0788 
     97 H97        23.1320   26.5549   -2.1693 H         1 UNK         0.0788 
     98 H98        22.6275   27.6117   -0.8621 H         1 UNK         0.0788 
     99 H99        25.5944   25.0303    0.1700 H         1 UNK         0.2993 
    100 H100       25.8248   22.6870   -2.0554 H         1 UNK         0.0949 
    101 H101       28.2722   22.6918   -2.6344 H         1 UNK         0.0767 
    102 H102       27.3425   23.6962   -3.7324 H         1 UNK         0.0767 
    103 H103       28.3063   24.4460   -2.4670 H         1 UNK         0.0767 
    104 H104       27.6044   24.0153   -0.0426 H         1 UNK         0.3013 
    105 H105       30.3613   28.0468    1.2642 H         1 UNK         0.3121 
    106 H106       29.6638   25.7243    2.6815 H         1 UNK         0.0774 
    107 H107       27.2677   26.5688    2.2109 H         1 UNK         0.0815 
    108 H108       27.6662   26.6323    3.9139 H         1 UNK         0.0815 
    109 H109       27.7006   28.1028    2.9472 H         1 UNK         0.0815 
    110 H110       29.9464   26.1526    5.0324 H         1 UNK         0.2987 
    111 H111       32.1836   27.7368    5.6450 H         1 UNK         0.0949 
    112 H112       31.5045   25.7589    6.9718 H         1 UNK         0.0806 
    113 H113       31.6290   27.1649    8.0150 H         1 UNK         0.0806 
    114 H114       30.0445   26.5878    7.5166 H         1 UNK         0.0806 
    115 H115       28.8166   28.6186    5.6377 H         1 UNK         0.3010 
    116 H116       28.8430   31.0272    7.1232 H         1 UNK         0.0829 
    117 H117       26.7609   29.8562    6.4348 H         1 UNK         0.0813 
    118 H118       26.7480   31.5047    5.8348 H         1 UNK         0.0813 
    119 H119       27.1084   30.1810    4.7352 H         1 UNK         0.0813 
    120 H120       30.2916   30.3619    4.0042 H         1 UNK         0.3038 
    121 H121       30.4212   33.1380    3.1241 H         1 UNK         0.0769 
    122 H122       31.8350   32.2225    1.3404 H         1 UNK         0.0811 
    123 H123       30.4428   31.1711    1.5353 H         1 UNK         0.0811 
    124 H124       32.0123   30.6938    2.1841 H         1 UNK         0.0811 
    125 H125       31.9112   31.5419    5.6680 H         1 UNK         0.3204 
    126 H126       33.5543   31.9479    7.0631 H         1 UNK         0.0748 
    127 H127       34.6612   34.1411    7.2068 H         1 UNK         0.0771 
    128 H128       34.0696   34.6017    5.6213 H         1 UNK         0.0771 
    129 H129       32.9373   34.3587    6.9491 H         1 UNK         0.0771 
    130 H130       34.1708   30.0512    5.6518 H         1 UNK         0.2980 
    131 H131       36.3061   30.0708    3.8443 H         1 UNK         0.0545 
    132 H132       39.4209   30.0498    5.5535 H         1 UNK         0.3459 
    133 H133       38.5925   29.8653    4.0310 H         1 UNK         0.3459 
    134 H134       36.5743   27.6422    4.5129 H         1 UNK         0.0616 
    135 H135       35.4530   27.8937    5.8283 H         1 UNK         0.0616 
    136 H136       35.2201   25.6345    3.9201 H         1 UNK         0.0634 
    137 H137       33.8798   25.9141    5.0079 H         1 UNK         0.0634 
@<TRIPOS>BOND
     1    1    2 1    
     2    1   72 1    
     3    1   73 1    
     4    1   74 1    
     5    2    3 2    
     6    2    4 am   BACKBONE|DICT|INTERRES
     7    4    5 1    
     8    4   75 1    
     9    5    6 1    
    10    5   35 1    
    11    5   76 1    
    12    6    7 1    
    13    6   77 1    
    14    6   78 1    
    15    7    8 1    
    16    8    9 1    
    17    8   79 1    
    18    8   80 1    
    19    9   10 ar   
    20    9   14 ar   
    21   10   11 ar   
    22   10   81 1    
    23   11   12 ar   
    24   11   71 1    
    25   12   13 ar   
    26   12   82 1    
    27   13   14 ar   
    28   13   15 1    
    29   14   83 1    
    30   15   16 1    
    31   15   84 1    
    32   15   85 1    
    33   16   17 1    
    34   17   18 1    
    35   17   86 1    
    36   17   87 1    
    37   18   19 1    
    38   18   37 1    
    39   18   88 1    
    40   19   20 am   BACKBONE|DICT|INTERRES
    41   19   89 1    
    42   20   21 2    
    43   20   22 1    
    44   22   23 1    
    45   22   24 1    
    46   22   90 1    
    47   23   91 1    
    48   23   92 1    
    49   23   93 1    
    50   24   25 am   BACKBONE|DICT|INTERRES
    51   24   94 1    
    52   25   26 2    
    53   25   27 1    
    54   27   28 1    
    55   27   29 1    
    56   27   95 1    
    57   28   96 1    
    58   28   97 1    
    59   28   98 1    
    60   29   30 am   BACKBONE|DICT|INTERRES
    61   29   99 1    
    62   30   31 2    
    63   30   32 1    
    64   32   33 1    
    65   32   34 1    
    66   32  100 1    
    67   33  101 1    
    68   33  102 1    
    69   33  103 1    
    70   34   35 am   BACKBONE|DICT|INTERRES
    71   34  104 1    
    72   35   36 2    
    73   37   38 2    
    74   37   39 am   BACKBONE|DICT|INTERRES
    75   39   40 1    
    76   39  105 1    
    77   40   41 1    
    78   40   42 1    
    79   40  106 1    
    80   41  107 1    
    81   41  108 1    
    82   41  109 1    
    83   42   43 2    
    84   42   44 am   BACKBONE|DICT|INTERRES
    85   44   45 1    
    86   44  110 1    
    87   45   46 1    
    88   45   47 1    
    89   45  111 1    
    90   46  112 1    
    91   46  113 1    
    92   46  114 1    
    93   47   48 2    
    94   47   49 am   BACKBONE|DICT|INTERRES
    95   49   50 1    
    96   49  115 1    
    97   50   51 1    
    98   50   52 1    
    99   50  116 1    
   100   51  117 1    
   101   51  118 1    
   102   51  119 1    
   103   52   53 2    
   104   52   54 am   BACKBONE|DICT|INTERRES
   105   54   55 1    
   106   54  120 1    
   107   55   56 1    
   108   55   57 1    
   109   55  121 1    
   110   56  122 1    
   111   56  123 1    
   112   56  124 1    
   113   57   58 2    
   114   57   59 am   BACKBONE|DICT|INTERRES
   115   59   60 1    
   116   59  125 1    
   117   60   61 1    
   118   60   62 1    
   119   60  126 1    
   120   61  127 1    
   121   61  128 1    
   122   61  129 1    
   123   62   63 2    
   124   62   64 am   BACKBONE|DICT|INTERRES
   125   64   65 1    
   126   64  130 1    
   127   65   66 1    
   128   65   69 1    
   129   65  131 1    
   130   66   67 am   BACKBONE|DICT|INTERRES
   131   66   68 2    
   132   67  132 1    
   133   67  133 1    
   134   69   70 1    
   135   69  134 1    
   136   69  135 1    
   137   70   71 1    
   138   71  136 1    
   139   71  137 1    
@<TRIPOS>SUBSTRUCTURE
     1 UNK         1 GROUP             0       ****    0 ROOT    
