@<TRIPOS>MOLECULE
3R136
137   139    1
SMALL
USER_CHARGES


@<TRIPOS>ATOM
      1 CA         26.4419   22.6120   -1.7580 C.3       0 UNK        -0.1979 
      2 C          27.1076   23.2567   -0.5531 C.2       0 UNK         0.4864 
      3 O          26.8693   24.4382   -0.2891 O.2       0 UNK        -0.5359 
      4 N          27.9439   22.4904    0.1592 N.am      1 UNK        -0.4318 
      5 CA         28.6756   22.8725    1.3721 C.3       1 UNK         0.0824 
      6 C6         29.6431   21.7453    1.8227 C.3       12 UNK        -0.0944 
      7 S7         30.8457   21.2724    0.5341 S.3       12 UNK        -0.2672 
      8 C8         32.4152   21.8529    1.2528 C.3       12 UNK         0.0333 
      9 C9         32.4874   23.3714    1.3132 C.ar      12 UNK        -0.0807 
     10 C10        32.5503   24.0328    2.5424 C.ar      12 UNK        -0.0894 
     11 C11        32.6452   25.4270    2.5934 C.ar      12 UNK        -0.0804 
     12 C12        32.6394   26.1618    1.4033 C.ar      12 UNK        -0.0824 
     13 C13        32.5706   25.5123    0.1652 C.ar      12 UNK        -0.0762 
     14 C14        32.5156   24.1145    0.1311 C.ar      12 UNK        -0.0782 
     15 C15        32.5898   26.3361   -1.1208 C.3       12 UNK         0.0230 
     16 S16        31.5573   25.6658   -2.4750 S.3       12 UNK        -0.2608 
     17 C17        29.8923   25.6183   -1.7277 C.3       12 UNK        -0.0989 
     18 CA         29.0737   26.8959   -2.0390 C.3       5 UNK         0.0716 
     19 N          27.6379   26.6598   -1.9179 N.am      5 UNK        -0.4135 
     20 C          26.6946   27.3892   -2.5307 C.2       4 UNK         0.5031 
     21 O          26.9429   28.2921   -3.3313 O.2       4 UNK        -0.5229 
     22 CA         25.2320   27.0736   -2.1921 C.3       4 UNK         0.0329 
     23 CB         24.7100   25.9236   -3.0681 C.3       4 UNK        -0.2001 
     24 N          25.0864   26.7193   -0.7796 N.am      4 UNK        -0.4303 
     25 C          24.5080   27.4959    0.1475 C.2       3 UNK         0.5044 
     26 O          23.9781   28.5813   -0.0925 O.2       3 UNK        -0.5152 
     27 CA         24.5142   26.9731    1.5922 C.3       3 UNK         0.0319 
     28 CB         23.2775   26.0973    1.8511 C.3       3 UNK        -0.2001 
     29 N          25.7203   26.1979    1.8776 N.am      3 UNK        -0.4354 
     30 C          26.8777   26.7097    2.3170 C.2       2 UNK         0.4964 
     31 O          27.0285   27.8897    2.6314 O.2       2 UNK        -0.5047 
     32 CA         28.0394   25.7112    2.4522 C.3       2 UNK         0.0288 
     33 CB         29.1631   26.2119    3.3727 C.3       2 UNK        -0.2113 
     34 N          27.5190   24.4439    2.9740 N.am      2 UNK        -0.4145 
     35 C          27.6833   23.1954    2.5159 C.2       1 UNK         0.5006 
     36 O          27.0383   22.2650    3.0008 O.2       1 UNK        -0.5103 
     37 C          29.4572   28.0765   -1.1295 C.2       5 UNK         0.5055 
     38 O          29.6909   27.8683    0.0621 O.2       5 UNK        -0.5220 
     39 N          29.4948   29.2855   -1.7103 N.am      6 UNK        -0.4450 
     40 CA         29.8173   30.5623   -1.0645 C.3       6 UNK         0.0367 
     41 CB         31.3229   30.6177   -0.7072 C.3       6 UNK        -0.1929 
     42 C          28.8718   30.8426    0.1213 C.2       6 UNK         0.5070 
     43 O          27.6724   31.0223   -0.0948 O.2       6 UNK        -0.5237 
     44 N          29.4209   30.8582    1.3366 N.am      7 UNK        -0.4739 
     45 CA         28.7126   30.9037    2.6066 C.3       7 UNK         0.0276 
     46 CB         28.4883   32.3670    3.0271 C.3       7 UNK        -0.1927 
     47 C          29.5850   30.1664    3.6267 C.2       7 UNK         0.5013 
     48 O          30.8027   30.0888    3.4360 O.2       7 UNK        -0.5193 
     49 N          28.9781   29.7009    4.7271 N.am      8 UNK        -0.4253 
     50 CA         29.6659   29.0275    5.8396 C.3       8 UNK         0.0242 
     51 CB         28.6359   28.5911    6.8922 C.3       8 UNK        -0.2000 
     52 C          30.7853   29.8636    6.4877 C.2       8 UNK         0.4948 
     53 O          31.7565   29.2924    6.9837 O.2       8 UNK        -0.5275 
     54 N          30.6716   31.1969    6.4014 N.am      9 UNK        -0.4246 
     55 CA         31.6929   32.1750    6.7843 C.3       9 UNK         0.0261 
     56 CB         31.1174   33.5899    6.6089 C.3       9 UNK        -0.1959 
     57 C          33.0293   32.0412    6.0243 C.2       9 UNK         0.5033 
     58 O          34.0418   32.5305    6.5268 O.2       9 UNK        -0.5390 
     59 N          33.0331   31.3786    4.8551 N.am      10 UNK        -0.4215 
     60 CA         34.2502   31.0291    4.1162 C.3       10 UNK         0.0240 
     61 CB         33.8820   30.5865    2.6896 C.3       10 UNK        -0.1982 
     62 C          35.0813   29.9369    4.8158 C.2       10 UNK         0.4970 
     63 O          36.2974   29.9035    4.6231 O.2       10 UNK        -0.4916 
     64 N          34.4225   29.0780    5.6048 N.am      11 UNK        -0.4279 
     65 CA         35.0505   28.0216    6.4092 C.3       11 UNK         0.1003 
     66 C          35.1483   28.4157    7.9062 C.2       11 UNK         0.5709 
     67 N          34.1543   29.0881    8.4734 N.am      11 UNK        -0.7358 
     68 O          36.1449   28.1157    8.5593 O.2       11 UNK        -0.4999 
     69 C69        34.3137   26.6692    6.2446 C.3       12 UNK        -0.0954 
     70 S70        34.4780   26.0033    4.5558 S.3       12 UNK        -0.2268 
     71 C71        32.7729   26.1284    3.9376 C.3       12 UNK         0.0203 
     72 H72        25.3619   22.7466   -1.7065 H         1 UNK         0.0888 
     73 H73        26.6460   21.5428   -1.8127 H         1 UNK         0.0888 
     74 H74        26.8037   23.0733   -2.6763 H         1 UNK         0.0888 
     75 H75        28.0900   21.5337   -0.1290 H         1 UNK         0.3017 
     76 H76        29.2971   23.7337    1.1354 H         1 UNK         0.0873 
     77 H77        29.0899   20.8435    2.0931 H         1 UNK         0.0745 
     78 H78        30.1808   22.0466    2.7238 H         1 UNK         0.0745 
     79 H79        32.5462   21.4112    2.2419 H         1 UNK         0.0705 
     80 H80        33.2396   21.4829    0.6416 H         1 UNK         0.0705 
     81 H81        32.5499   23.4643    3.4624 H         1 UNK         0.1334 
     82 H82        32.6995   27.2411    1.4417 H         1 UNK         0.1417 
     83 H83        32.4801   23.5965   -0.8175 H         1 UNK         0.1562 
     84 H84        33.6203   26.3962   -1.4725 H         1 UNK         0.0748 
     85 H85        32.2789   27.3617   -0.9189 H         1 UNK         0.0748 
     86 H86        29.9470   25.4114   -0.6576 H         1 UNK         0.0940 
     87 H87        29.3924   24.7506   -2.1610 H         1 UNK         0.0940 
     88 H88        29.2790   27.1740   -3.0757 H         1 UNK         0.0703 
     89 H89        27.3583   25.9290   -1.2694 H         1 UNK         0.3081 
     90 H90        24.6432   27.9636   -2.4246 H         1 UNK         0.0719 
     91 H91        25.2713   25.0040   -2.9080 H         1 UNK         0.0809 
     92 H92        23.6600   25.7153   -2.8619 H         1 UNK         0.0809 
     93 H93        24.7890   26.1739   -4.1269 H         1 UNK         0.0809 
     94 H94        25.5234   25.8523   -0.4837 H         1 UNK         0.2990 
     95 H95        24.4680   27.8342    2.2627 H         1 UNK         0.0690 
     96 H96        23.2418   25.7596    2.8870 H         1 UNK         0.0788 
     97 H97        23.2622   25.2152    1.2095 H         1 UNK         0.0788 
     98 H98        22.3592   26.6549    1.6612 H         1 UNK         0.0788 
     99 H99        25.7086   25.2205    1.6182 H         1 UNK         0.2993 
    100 H100       28.4390   25.6136    1.4444 H         1 UNK         0.0949 
    101 H101       29.9409   25.4581    3.4801 H         1 UNK         0.0767 
    102 H102       29.6312   27.1097    2.9655 H         1 UNK         0.0767 
    103 H103       28.7879   26.4504    4.3679 H         1 UNK         0.0767 
    104 H104       26.8616   24.5592    3.7326 H         1 UNK         0.3013 
    105 H105       29.1922   29.3505   -2.6735 H         1 UNK         0.3121 
    106 H106       29.6233   31.3440   -1.8004 H         1 UNK         0.0774 
    107 H107       31.9390   30.4912   -1.5974 H         1 UNK         0.0815 
    108 H108       31.6117   29.8408    0.0020 H         1 UNK         0.0815 
    109 H109       31.5894   31.5814   -0.2711 H         1 UNK         0.0815 
    110 H110       30.4021   30.6263    1.4364 H         1 UNK         0.2987 
    111 H111       27.7550   30.3878    2.5134 H         1 UNK         0.0949 
    112 H112       29.4320   32.9010    3.1475 H         1 UNK         0.0806 
    113 H113       27.8935   32.9036    2.2877 H         1 UNK         0.0806 
    114 H114       27.9530   32.4265    3.9754 H         1 UNK         0.0806 
    115 H115       27.9740   29.7872    4.7992 H         1 UNK         0.3010 
    116 H116       30.1427   28.1334    5.4338 H         1 UNK         0.0829 
    117 H117       27.8970   27.9116    6.4668 H         1 UNK         0.0813 
    118 H118       29.1200   28.0650    7.7165 H         1 UNK         0.0813 
    119 H119       28.1050   29.4441    7.3166 H         1 UNK         0.0813 
    120 H120       29.8343   31.5664    5.9764 H         1 UNK         0.3038 
    121 H121       31.9107   32.0204    7.8432 H         1 UNK         0.0769 
    122 H122       30.8551   33.7930    5.5697 H         1 UNK         0.0811 
    123 H123       31.8408   34.3469    6.9159 H         1 UNK         0.0811 
    124 H124       30.2242   33.7350    7.2170 H         1 UNK         0.0811 
    125 H125       32.1618   31.0048    4.4862 H         1 UNK         0.3204 
    126 H126       34.8713   31.9245    4.0443 H         1 UNK         0.0748 
    127 H127       33.2879   31.3433    2.1771 H         1 UNK         0.0771 
    128 H128       34.7785   30.4171    2.0919 H         1 UNK         0.0771 
    129 H129       33.3134   29.6556    2.6895 H         1 UNK         0.0771 
    130 H130       33.4312   29.2106    5.7609 H         1 UNK         0.2980 
    131 H131       36.0770   27.8694    6.0697 H         1 UNK         0.0545 
    132 H132       34.2250   29.3481    9.4437 H         1 UNK         0.3459 
    133 H133       33.2931   29.2628    7.9612 H         1 UNK         0.3459 
    134 H134       34.7294   25.9218    6.9230 H         1 UNK         0.0616 
    135 H135       33.2594   26.7683    6.5099 H         1 UNK         0.0616 
    136 H136       32.4888   27.1795    3.8587 H         1 UNK         0.0634 
    137 H137       32.0913   25.6715    4.6564 H         1 UNK         0.0634 
@<TRIPOS>BOND
     1    1    2 1    
     2    1   72 1    
     3    1   73 1    
     4    1   74 1    
     5    2    3 2    
     6    2    4 am   BACKBONE|DICT|INTERRES
     7    4    5 1    
     8    4   75 1    
     9    5    6 1    
    10    5   35 1    
    11    5   76 1    
    12    6    7 1    
    13    6   77 1    
    14    6   78 1    
    15    7    8 1    
    16    8    9 1    
    17    8   79 1    
    18    8   80 1    
    19    9   10 ar   
    20    9   14 ar   
    21   10   11 ar   
    22   10   81 1    
    23   11   12 ar   
    24   11   71 1    
    25   12   13 ar   
    26   12   82 1    
    27   13   14 ar   
    28   13   15 1    
    29   14   83 1    
    30   15   16 1    
    31   15   84 1    
    32   15   85 1    
    33   16   17 1    
    34   17   18 1    
    35   17   86 1    
    36   17   87 1    
    37   18   19 1    
    38   18   37 1    
    39   18   88 1    
    40   19   20 am   BACKBONE|DICT|INTERRES
    41   19   89 1    
    42   20   21 2    
    43   20   22 1    
    44   22   23 1    
    45   22   24 1    
    46   22   90 1    
    47   23   91 1    
    48   23   92 1    
    49   23   93 1    
    50   24   25 am   BACKBONE|DICT|INTERRES
    51   24   94 1    
    52   25   26 2    
    53   25   27 1    
    54   27   28 1    
    55   27   29 1    
    56   27   95 1    
    57   28   96 1    
    58   28   97 1    
    59   28   98 1    
    60   29   30 am   BACKBONE|DICT|INTERRES
    61   29   99 1    
    62   30   31 2    
    63   30   32 1    
    64   32   33 1    
    65   32   34 1    
    66   32  100 1    
    67   33  101 1    
    68   33  102 1    
    69   33  103 1    
    70   34   35 am   BACKBONE|DICT|INTERRES
    71   34  104 1    
    72   35   36 2    
    73   37   38 2    
    74   37   39 am   BACKBONE|DICT|INTERRES
    75   39   40 1    
    76   39  105 1    
    77   40   41 1    
    78   40   42 1    
    79   40  106 1    
    80   41  107 1    
    81   41  108 1    
    82   41  109 1    
    83   42   43 2    
    84   42   44 am   BACKBONE|DICT|INTERRES
    85   44   45 1    
    86   44  110 1    
    87   45   46 1    
    88   45   47 1    
    89   45  111 1    
    90   46  112 1    
    91   46  113 1    
    92   46  114 1    
    93   47   48 2    
    94   47   49 am   BACKBONE|DICT|INTERRES
    95   49   50 1    
    96   49  115 1    
    97   50   51 1    
    98   50   52 1    
    99   50  116 1    
   100   51  117 1    
   101   51  118 1    
   102   51  119 1    
   103   52   53 2    
   104   52   54 am   BACKBONE|DICT|INTERRES
   105   54   55 1    
   106   54  120 1    
   107   55   56 1    
   108   55   57 1    
   109   55  121 1    
   110   56  122 1    
   111   56  123 1    
   112   56  124 1    
   113   57   58 2    
   114   57   59 am   BACKBONE|DICT|INTERRES
   115   59   60 1    
   116   59  125 1    
   117   60   61 1    
   118   60   62 1    
   119   60  126 1    
   120   61  127 1    
   121   61  128 1    
   122   61  129 1    
   123   62   63 2    
   124   62   64 am   BACKBONE|DICT|INTERRES
   125   64   65 1    
   126   64  130 1    
   127   65   66 1    
   128   65   69 1    
   129   65  131 1    
   130   66   67 am   BACKBONE|DICT|INTERRES
   131   66   68 2    
   132   67  132 1    
   133   67  133 1    
   134   69   70 1    
   135   69  134 1    
   136   69  135 1    
   137   70   71 1    
   138   71  136 1    
   139   71  137 1    
@<TRIPOS>SUBSTRUCTURE
     1 UNK         1 GROUP             0       ****    0 ROOT    
