@<TRIPOS>MOLECULE
3R136
137   139    1
SMALL
USER_CHARGES


@<TRIPOS>ATOM
      1 CA         31.3870   22.1637   -3.1258 C.3       0 UNK        -0.1979 
      2 C          30.4644   22.9645   -2.2187 C.2       0 UNK         0.4864 
      3 O          29.6542   22.3723   -1.5055 O.2       0 UNK        -0.5359 
      4 N          30.5931   24.2996   -2.2452 N.am      1 UNK        -0.4318 
      5 CA         29.8234   25.2790   -1.4623 C.3       1 UNK         0.0824 
      6 C6         30.1006   25.2158    0.0641 C.3       12 UNK        -0.0944 
      7 S7         31.8536   25.5575    0.4355 S.3       12 UNK        -0.2672 
      8 C8         32.4200   23.9502    1.0689 C.3       12 UNK         0.0333 
      9 C9         32.0566   23.7807    2.5351 C.ar      12 UNK        -0.0807 
     10 C10        32.8537   24.3706    3.5203 C.ar      12 UNK        -0.0894 
     11 C11        32.5350   24.2237    4.8725 C.ar      12 UNK        -0.0804 
     12 C12        31.4059   23.4856    5.2375 C.ar      12 UNK        -0.0824 
     13 C13        30.5979   22.8952    4.2603 C.ar      12 UNK        -0.0762 
     14 C14        30.9330   23.0382    2.9102 C.ar      12 UNK        -0.0782 
     15 C15        29.3646   22.0996    4.6645 C.3       12 UNK         0.0230 
     16 S16        27.8163   22.9285    4.1781 S.3       12 UNK        -0.2608 
     17 C17        27.9404   24.5245    5.0563 C.3       12 UNK        -0.0989 
     18 CA         28.1261   25.7093    4.0760 C.3       5 UNK         0.0716 
     19 N          26.9781   25.8466    3.1755 N.am      5 UNK        -0.4135 
     20 C          26.8451   26.7565    2.2033 C.2       4 UNK         0.5031 
     21 O          27.7282   27.5589    1.8728 O.2       4 UNK        -0.5229 
     22 CA         25.4718   26.8003    1.5203 C.3       4 UNK         0.0329 
     23 CB         24.4415   27.4896    2.4440 C.3       4 UNK        -0.2001 
     24 N          25.6312   27.4870    0.2405 N.am      4 UNK        -0.4303 
     25 C          24.6920   27.8814   -0.6272 C.2       3 UNK         0.5044 
     26 O          23.4778   27.7854   -0.4469 O.2       3 UNK        -0.5152 
     27 CA         25.2181   28.4416   -1.9598 C.3       3 UNK         0.0319 
     28 CB         25.9765   29.7655   -1.7517 C.3       3 UNK        -0.2001 
     29 N          26.0752   27.4674   -2.6446 N.am      3 UNK        -0.4354 
     30 C          25.6374   26.3012   -3.1467 C.2       2 UNK         0.4964 
     31 O          24.4497   25.9776   -3.1893 O.2       2 UNK        -0.5047 
     32 CA         26.6869   25.3193   -3.7002 C.3       2 UNK         0.0288 
     33 CB         26.8066   25.4662   -5.2263 C.3       2 UNK        -0.2113 
     34 N          28.0221   25.4276   -3.1027 N.am      2 UNK        -0.4145 
     35 C          28.3210   25.2236   -1.8101 C.2       1 UNK         0.5006 
     36 O          27.4819   24.9886   -0.9387 O.2       1 UNK        -0.5103 
     37 C          28.3488   27.0224    4.8515 C.2       5 UNK         0.5055 
     38 O          27.4165   27.5030    5.4993 O.2       5 UNK        -0.5220 
     39 N          29.5584   27.5851    4.7321 N.am      6 UNK        -0.4450 
     40 CA         30.0084   28.8753    5.2746 C.3       6 UNK         0.0367 
     41 CB         29.8759   28.9248    6.8123 C.3       6 UNK        -0.1929 
     42 C          29.3790   30.1208    4.6113 C.2       6 UNK         0.5070 
     43 O          29.7389   31.2337    4.9982 O.2       6 UNK        -0.5237 
     44 N          28.4789   29.9478    3.6308 N.am      7 UNK        -0.4739 
     45 CA         27.9124   31.0444    2.8393 C.3       7 UNK         0.0276 
     46 CB         26.4673   30.7203    2.4350 C.3       7 UNK        -0.1927 
     47 C          28.7719   31.3147    1.5991 C.2       7 UNK         0.5013 
     48 O          29.0260   32.4764    1.2777 O.2       7 UNK        -0.5193 
     49 N          29.2508   30.2444    0.9485 N.am      8 UNK        -0.4253 
     50 CA         30.1955   30.2897   -0.1726 C.3       8 UNK         0.0242 
     51 CB         30.0631   28.9854   -0.9774 C.3       8 UNK        -0.2000 
     52 C          31.6362   30.5324    0.3265 C.2       8 UNK         0.4948 
     53 O          32.5112   29.6931    0.1066 O.2       8 UNK        -0.5275 
     54 N          31.8256   31.6706    1.0112 N.am      9 UNK        -0.4246 
     55 CA         32.9578   32.0698    1.8583 C.3       9 UNK         0.0261 
     56 CB         34.3130   31.9638    1.1294 C.3       9 UNK        -0.1959 
     57 C          32.9661   31.3043    3.1954 C.2       9 UNK         0.5033 
     58 O          32.5289   30.1539    3.2640 O.2       9 UNK        -0.5390 
     59 N          33.4504   31.9734    4.2492 N.am      10 UNK        -0.4215 
     60 CA         33.4946   31.4471    5.6155 C.3       10 UNK         0.0240 
     61 CB         33.8562   32.5861    6.5831 C.3       10 UNK        -0.1982 
     62 C          34.4840   30.2791    5.7655 C.2       10 UNK         0.4970 
     63 O          35.5354   30.2772    5.1206 O.2       10 UNK        -0.4916 
     64 N          34.1395   29.3348    6.6477 N.am      11 UNK        -0.4279 
     65 CA         34.9492   28.1482    6.9708 C.3       11 UNK         0.1003 
     66 C          36.1978   28.4347    7.8564 C.2       11 UNK         0.5709 
     67 N          36.3508   29.6199    8.4359 N.am      11 UNK        -0.7358 
     68 O          37.0503   27.5638    8.0135 O.2       11 UNK        -0.4999 
     69 C69        34.0770   27.0226    7.5870 C.3       12 UNK        -0.0954 
     70 S70        32.7583   26.4676    6.4557 S.3       12 UNK        -0.2268 
     71 C71        33.4151   24.8559    5.9376 C.3       12 UNK         0.0203 
     72 H72        32.0580   22.8054   -3.6966 H         1 UNK         0.0888 
     73 H73        31.9949   21.4810   -2.5327 H         1 UNK         0.0888 
     74 H74        30.8009   21.5742   -3.8304 H         1 UNK         0.0888 
     75 H75        31.2932   24.7015   -2.8532 H         1 UNK         0.3017 
     76 H76        30.1622   26.2551   -1.8098 H         1 UNK         0.0873 
     77 H77        29.5075   25.9631    0.5930 H         1 UNK         0.0745 
     78 H78        29.8007   24.2515    0.4754 H         1 UNK         0.0745 
     79 H79        33.5031   23.8899    0.9535 H         1 UNK         0.0705 
     80 H80        32.0049   23.1415    0.4656 H         1 UNK         0.0705 
     81 H81        33.7215   24.9483    3.2318 H         1 UNK         0.1334 
     82 H82        31.1564   23.3767    6.2843 H         1 UNK         0.1417 
     83 H83        30.3098   22.5801    2.1538 H         1 UNK         0.1562 
     84 H84        29.3500   21.9218    5.7410 H         1 UNK         0.0748 
     85 H85        29.4016   21.1162    4.1938 H         1 UNK         0.0748 
     86 H86        28.7617   24.4836    5.7737 H         1 UNK         0.0940 
     87 H87        27.0353   24.6574    5.6526 H         1 UNK         0.0940 
     88 H88        29.0048   25.5133    3.4568 H         1 UNK         0.0703 
     89 H89        26.2000   25.2357    3.3741 H         1 UNK         0.3081 
     90 H90        25.1565   25.7754    1.3161 H         1 UNK         0.0719 
     91 H91        24.6055   28.5634    2.5103 H         1 UNK         0.0809 
     92 H92        23.4221   27.3320    2.0935 H         1 UNK         0.0809 
     93 H93        24.4823   27.0930    3.4593 H         1 UNK         0.0809 
     94 H94        26.6033   27.6192   -0.0065 H         1 UNK         0.2990 
     95 H95        24.3584   28.6448   -2.6022 H         1 UNK         0.0690 
     96 H96        26.3157   30.1818   -2.7004 H         1 UNK         0.0788 
     97 H97        26.8467   29.6493   -1.1061 H         1 UNK         0.0788 
     98 H98        25.3298   30.5107   -1.2864 H         1 UNK         0.0788 
     99 H99        27.0642   27.6620   -2.6777 H         1 UNK         0.2993 
    100 H100       26.3205   24.3133   -3.4834 H         1 UNK         0.0949 
    101 H101       27.2041   26.4421   -5.5081 H         1 UNK         0.0767 
    102 H102       27.4580   24.7013   -5.6498 H         1 UNK         0.0767 
    103 H103       25.8328   25.3600   -5.7070 H         1 UNK         0.0767 
    104 H104       28.7821   25.6008   -3.7448 H         1 UNK         0.3013 
    105 H105       30.2444   27.1099    4.1607 H         1 UNK         0.3121 
    106 H106       31.0734   28.9220    5.0463 H         1 UNK         0.0774 
    107 H107       30.3911   29.7957    7.2188 H         1 UNK         0.0815 
    108 H108       28.8350   28.9932    7.1289 H         1 UNK         0.0815 
    109 H109       30.3115   28.0433    7.2814 H         1 UNK         0.0815 
    110 H110       28.2325   29.0059    3.3496 H         1 UNK         0.2987 
    111 H111       27.8908   31.9570    3.4394 H         1 UNK         0.0949 
    112 H112       26.0066   31.5716    1.9322 H         1 UNK         0.0806 
    113 H113       26.4169   29.8772    1.7473 H         1 UNK         0.0806 
    114 H114       25.8555   30.4887    3.3068 H         1 UNK         0.0806 
    115 H115       29.0061   29.3257    1.2979 H         1 UNK         0.3010 
    116 H116       29.9302   31.1195   -0.8316 H         1 UNK         0.0829 
    117 H117       29.0533   28.8477   -1.3601 H         1 UNK         0.0813 
    118 H118       30.7385   28.9825   -1.8340 H         1 UNK         0.0813 
    119 H119       30.3121   28.1234   -0.3595 H         1 UNK         0.0813 
    120 H120       30.9948   32.2445    1.1252 H         1 UNK         0.3038 
    121 H121       32.7848   33.1233    2.0843 H         1 UNK         0.0769 
    122 H122       35.1041   32.4375    1.7115 H         1 UNK         0.0811 
    123 H123       34.2835   32.4578    0.1583 H         1 UNK         0.0811 
    124 H124       34.6125   30.9273    0.9723 H         1 UNK         0.0811 
    125 H125       33.8287   32.8990    4.1096 H         1 UNK         0.3204 
    126 H126       32.4925   31.0895    5.8628 H         1 UNK         0.0748 
    127 H127       33.8545   32.2386    7.6170 H         1 UNK         0.0771 
    128 H128       34.8478   32.9918    6.3769 H         1 UNK         0.0771 
    129 H129       33.1380   33.4040    6.5194 H         1 UNK         0.0771 
    130 H130       33.2675   29.4178    7.1477 H         1 UNK         0.2980 
    131 H131       35.3480   27.7658    6.0290 H         1 UNK         0.0545 
    132 H132       35.6618   30.3434    8.3132 H         1 UNK         0.3459 
    133 H133       37.1672   29.7897    9.0020 H         1 UNK         0.3459 
    134 H134       33.6106   27.3667    8.5117 H         1 UNK         0.0616 
    135 H135       34.6897   26.1619    7.8623 H         1 UNK         0.0616 
    136 H136       34.4315   24.9841    5.5614 H         1 UNK         0.0634 
    137 H137       33.4844   24.1966    6.8042 H         1 UNK         0.0634 
@<TRIPOS>BOND
     1    1    2 1    
     2    1   72 1    
     3    1   73 1    
     4    1   74 1    
     5    2    3 2    
     6    2    4 am   BACKBONE|DICT|INTERRES
     7    4    5 1    
     8    4   75 1    
     9    5    6 1    
    10    5   35 1    
    11    5   76 1    
    12    6    7 1    
    13    6   77 1    
    14    6   78 1    
    15    7    8 1    
    16    8    9 1    
    17    8   79 1    
    18    8   80 1    
    19    9   10 ar   
    20    9   14 ar   
    21   10   11 ar   
    22   10   81 1    
    23   11   12 ar   
    24   11   71 1    
    25   12   13 ar   
    26   12   82 1    
    27   13   14 ar   
    28   13   15 1    
    29   14   83 1    
    30   15   16 1    
    31   15   84 1    
    32   15   85 1    
    33   16   17 1    
    34   17   18 1    
    35   17   86 1    
    36   17   87 1    
    37   18   19 1    
    38   18   37 1    
    39   18   88 1    
    40   19   20 am   BACKBONE|DICT|INTERRES
    41   19   89 1    
    42   20   21 2    
    43   20   22 1    
    44   22   23 1    
    45   22   24 1    
    46   22   90 1    
    47   23   91 1    
    48   23   92 1    
    49   23   93 1    
    50   24   25 am   BACKBONE|DICT|INTERRES
    51   24   94 1    
    52   25   26 2    
    53   25   27 1    
    54   27   28 1    
    55   27   29 1    
    56   27   95 1    
    57   28   96 1    
    58   28   97 1    
    59   28   98 1    
    60   29   30 am   BACKBONE|DICT|INTERRES
    61   29   99 1    
    62   30   31 2    
    63   30   32 1    
    64   32   33 1    
    65   32   34 1    
    66   32  100 1    
    67   33  101 1    
    68   33  102 1    
    69   33  103 1    
    70   34   35 am   BACKBONE|DICT|INTERRES
    71   34  104 1    
    72   35   36 2    
    73   37   38 2    
    74   37   39 am   BACKBONE|DICT|INTERRES
    75   39   40 1    
    76   39  105 1    
    77   40   41 1    
    78   40   42 1    
    79   40  106 1    
    80   41  107 1    
    81   41  108 1    
    82   41  109 1    
    83   42   43 2    
    84   42   44 am   BACKBONE|DICT|INTERRES
    85   44   45 1    
    86   44  110 1    
    87   45   46 1    
    88   45   47 1    
    89   45  111 1    
    90   46  112 1    
    91   46  113 1    
    92   46  114 1    
    93   47   48 2    
    94   47   49 am   BACKBONE|DICT|INTERRES
    95   49   50 1    
    96   49  115 1    
    97   50   51 1    
    98   50   52 1    
    99   50  116 1    
   100   51  117 1    
   101   51  118 1    
   102   51  119 1    
   103   52   53 2    
   104   52   54 am   BACKBONE|DICT|INTERRES
   105   54   55 1    
   106   54  120 1    
   107   55   56 1    
   108   55   57 1    
   109   55  121 1    
   110   56  122 1    
   111   56  123 1    
   112   56  124 1    
   113   57   58 2    
   114   57   59 am   BACKBONE|DICT|INTERRES
   115   59   60 1    
   116   59  125 1    
   117   60   61 1    
   118   60   62 1    
   119   60  126 1    
   120   61  127 1    
   121   61  128 1    
   122   61  129 1    
   123   62   63 2    
   124   62   64 am   BACKBONE|DICT|INTERRES
   125   64   65 1    
   126   64  130 1    
   127   65   66 1    
   128   65   69 1    
   129   65  131 1    
   130   66   67 am   BACKBONE|DICT|INTERRES
   131   66   68 2    
   132   67  132 1    
   133   67  133 1    
   134   69   70 1    
   135   69  134 1    
   136   69  135 1    
   137   70   71 1    
   138   71  136 1    
   139   71  137 1    
@<TRIPOS>SUBSTRUCTURE
     1 UNK         1 GROUP             0       ****    0 ROOT    
