@<TRIPOS>MOLECULE
3R136
137   139    1
SMALL
USER_CHARGES


@<TRIPOS>ATOM
      1 CA         27.2293   23.5206    6.5050 C.3       0 UNK        -0.1979 
      2 C          27.4970   24.1824    5.1626 C.2       0 UNK         0.4864 
      3 O          27.1733   25.3576    4.9862 O.2       0 UNK        -0.5359 
      4 N          28.0650   23.4366    4.2055 N.am      1 UNK        -0.4318 
      5 CA         28.5102   23.8621    2.8642 C.3       1 UNK         0.0824 
      6 C6         29.6001   24.9658    2.8895 C.3       12 UNK        -0.0944 
      7 S7         31.0625   24.4772    3.8635 S.3       12 UNK        -0.2672 
      8 C8         32.0231   23.5335    2.6393 C.3       12 UNK         0.0333 
      9 C9         32.6257   24.4307    1.5694 C.ar      12 UNK        -0.0807 
     10 C10        33.7625   25.1890    1.8594 C.ar      12 UNK        -0.0894 
     11 C11        34.3386   26.0154    0.8878 C.ar      12 UNK        -0.0804 
     12 C12        33.7764   26.0499   -0.3928 C.ar      12 UNK        -0.0824 
     13 C13        32.6430   25.2885   -0.6998 C.ar      12 UNK        -0.0762 
     14 C14        32.0673   24.4854    0.2886 C.ar      12 UNK        -0.0782 
     15 C15        32.0814   25.2897   -2.1154 C.3       12 UNK         0.0230 
     16 S16        31.5162   26.9373   -2.6387 S.3       12 UNK        -0.2608 
     17 C17        29.7831   26.9575   -2.0698 C.3       12 UNK        -0.0989 
     18 CA         29.2391   28.4155   -2.0297 C.3       5 UNK         0.0716 
     19 N          27.8461   28.5430   -2.4413 N.am      5 UNK        -0.4135 
     20 C          27.3828   28.4553   -3.6928 C.2       4 UNK         0.5031 
     21 O          28.0815   28.1357   -4.6564 O.2       4 UNK        -0.5229 
     22 CA         25.9031   28.8342   -3.9162 C.3       4 UNK         0.0329 
     23 CB         25.2746   28.1129   -5.1288 C.3       4 UNK        -0.2001 
     24 N          25.0664   28.6962   -2.7151 N.am      4 UNK        -0.4303 
     25 C          24.7511   27.5619   -2.0738 C.2       3 UNK         0.5044 
     26 O          25.0836   26.4341   -2.4461 O.2       3 UNK        -0.5152 
     27 CA         23.8858   27.7374   -0.8136 C.3       3 UNK         0.0319 
     28 CB         22.4048   27.8986   -1.1964 C.3       3 UNK        -0.2001 
     29 N          24.0112   26.6150    0.1168 N.am      3 UNK        -0.4354 
     30 C          25.1144   26.2962    0.8066 C.2       2 UNK         0.4964 
     31 O          26.1552   26.9571    0.7784 O.2       2 UNK        -0.5047 
     32 CA         24.9865   25.0601    1.7186 C.3       2 UNK         0.0288 
     33 CB         24.3934   23.8365    0.9828 C.3       2 UNK        -0.2113 
     34 N          26.2336   24.7011    2.4021 N.am      2 UNK        -0.4145 
     35 C          27.3714   24.2214    1.8805 C.2       1 UNK         0.5006 
     36 O          27.5448   24.0106    0.6786 O.2       1 UNK        -0.5103 
     37 C          29.4028   29.1139   -0.6681 C.2       5 UNK         0.5055 
     38 O          28.5109   29.8602   -0.2502 O.2       5 UNK        -0.5220 
     39 N          30.5440   28.8837   -0.0092 N.am      6 UNK        -0.4450 
     40 CA         30.9364   29.4795    1.2687 C.3       6 UNK         0.0367 
     41 CB         32.4597   29.3260    1.4200 C.3       6 UNK        -0.1929 
     42 C          30.1647   28.8846    2.4649 C.2       6 UNK         0.5070 
     43 O          30.7701   28.2361    3.3194 O.2       6 UNK        -0.5237 
     44 N          28.8457   29.1218    2.4959 N.am      7 UNK        -0.4739 
     45 CA         27.8724   28.6650    3.4968 C.3       7 UNK         0.0276 
     46 CB         26.5407   29.3975    3.2663 C.3       7 UNK        -0.1927 
     47 C          28.3382   28.8622    4.9509 C.2       7 UNK         0.5013 
     48 O          28.8353   29.9383    5.2887 O.2       7 UNK        -0.5193 
     49 N          28.1736   27.8137    5.7689 N.am      8 UNK        -0.4253 
     50 CA         28.6406   27.6824    7.1547 C.3       8 UNK         0.0242 
     51 CB         27.9339   28.6959    8.0808 C.3       8 UNK        -0.2000 
     52 C          30.1783   27.7120    7.2891 C.2       8 UNK         0.4948 
     53 O          30.6857   28.1077    8.3400 O.2       8 UNK        -0.5275 
     54 N          30.8848   27.2816    6.2306 N.am      9 UNK        -0.4246 
     55 CA         32.3436   27.2588    6.0748 C.3       9 UNK         0.0261 
     56 CB         32.9883   26.2330    7.0302 C.3       9 UNK        -0.1959 
     57 C          32.9642   28.6640    6.1781 C.2       9 UNK         0.5033 
     58 O          33.9598   28.8547    6.8806 O.2       9 UNK        -0.5390 
     59 N          32.3697   29.6273    5.4574 N.am      10 UNK        -0.4215 
     60 CA         32.7737   31.0418    5.4340 C.3       10 UNK         0.0240 
     61 CB         31.7523   31.8544    4.6215 C.3       10 UNK        -0.1982 
     62 C          34.2026   31.2897    4.9110 C.2       10 UNK         0.4970 
     63 O          34.7871   32.3302    5.2142 O.2       10 UNK        -0.4916 
     64 N          34.7371   30.3257    4.1551 N.am      11 UNK        -0.4279 
     65 CA         36.1334   30.2399    3.7144 C.3       11 UNK         0.1003 
     66 C          37.1563   29.9248    4.8473 C.2       11 UNK         0.5709 
     67 N          36.7375   29.5155    6.0405 N.am      11 UNK        -0.7358 
     68 O          38.3588   30.0707    4.6403 O.2       11 UNK        -0.4999 
     69 C69        36.2702   29.2610    2.5167 C.3       12 UNK        -0.0954 
     70 S70        35.5408   27.6188    2.8483 S.3       12 UNK        -0.2268 
     71 C71        35.5781   26.8547    1.1918 C.3       12 UNK         0.0203 
     72 H72        26.1683   23.5780    6.7461 H         1 UNK         0.0888 
     73 H73        27.5226   22.4710    6.5082 H         1 UNK         0.0888 
     74 H74        27.7860   24.0310    7.2903 H         1 UNK         0.0888 
     75 H75        28.2666   22.4692    4.4170 H         1 UNK         0.3017 
     76 H76        28.9707   22.9707    2.4360 H         1 UNK         0.0873 
     77 H77        29.2074   25.8824    3.3263 H         1 UNK         0.0745 
     78 H78        29.9130   25.2355    1.8803 H         1 UNK         0.0745 
     79 H79        31.3942   22.7624    2.1925 H         1 UNK         0.0705 
     80 H80        32.8244   23.0054    3.1583 H         1 UNK         0.0705 
     81 H81        34.1926   25.1369    2.8501 H         1 UNK         0.1334 
     82 H82        34.2247   26.6661   -1.1605 H         1 UNK         0.1417 
     83 H83        31.1952   23.8885    0.0575 H         1 UNK         0.1562 
     84 H84        31.2662   24.5720   -2.2224 H         1 UNK         0.0748 
     85 H85        32.8659   24.9606   -2.7982 H         1 UNK         0.0748 
     86 H86        29.6831   26.4520   -1.1063 H         1 UNK         0.0940 
     87 H87        29.2118   26.3527   -2.7758 H         1 UNK         0.0940 
     88 H88        29.8068   29.0286   -2.7335 H         1 UNK         0.0703 
     89 H89        27.2318   28.8623   -1.7028 H         1 UNK         0.3081 
     90 H90        25.9100   29.9004   -4.1474 H         1 UNK         0.0719 
     91 H91        25.8030   28.3636   -6.0495 H         1 UNK         0.0809 
     92 H92        25.3120   27.0286   -5.0218 H         1 UNK         0.0809 
     93 H93        24.2328   28.4017   -5.2672 H         1 UNK         0.0809 
     94 H94        24.7245   29.5661   -2.3290 H         1 UNK         0.2990 
     95 H95        24.2142   28.6394   -0.2924 H         1 UNK         0.0690 
     96 H96        22.2591   28.7521   -1.8600 H         1 UNK         0.0788 
     97 H97        21.7826   28.0668   -0.3170 H         1 UNK         0.0788 
     98 H98        22.0244   27.0167   -1.7139 H         1 UNK         0.0788 
     99 H99        23.2115   26.0033    0.1853 H         1 UNK         0.2993 
    100 H100       24.2923   25.3406    2.5124 H         1 UNK         0.0949 
    101 H101       24.3847   22.9550    1.6243 H         1 UNK         0.0767 
    102 H102       23.3623   24.0130    0.6759 H         1 UNK         0.0767 
    103 H103       24.9616   23.5899    0.0849 H         1 UNK         0.0767 
    104 H104       26.2667   24.9139    3.3956 H         1 UNK         0.3013 
    105 H105       31.2030   28.2363   -0.4213 H         1 UNK         0.3121 
    106 H106       30.7110   30.5476    1.2353 H         1 UNK         0.0774 
    107 H107       32.7509   28.2777    1.4869 H         1 UNK         0.0815 
    108 H108       32.9960   29.7725    0.5827 H         1 UNK         0.0815 
    109 H109       32.8097   29.8177    2.3245 H         1 UNK         0.0815 
    110 H110       28.4627   29.6196    1.6979 H         1 UNK         0.2987 
    111 H111       27.7052   27.6023    3.3161 H         1 UNK         0.0949 
    112 H112       25.7748   29.0410    3.9562 H         1 UNK         0.0806 
    113 H113       26.6434   30.4729    3.4172 H         1 UNK         0.0806 
    114 H114       26.1656   29.2358    2.2557 H         1 UNK         0.0806 
    115 H115       27.7435   26.9673    5.3911 H         1 UNK         0.3010 
    116 H116       28.3368   26.6845    7.4741 H         1 UNK         0.0829 
    117 H117       28.2515   29.7193    7.8795 H         1 UNK         0.0813 
    118 H118       26.8510   28.6507    7.9658 H         1 UNK         0.0813 
    119 H119       28.1558   28.4890    9.1284 H         1 UNK         0.0813 
    120 H120       30.3717   27.0268    5.3961 H         1 UNK         0.3038 
    121 H121       32.5365   26.9203    5.0553 H         1 UNK         0.0769 
    122 H122       32.8727   26.5220    8.0751 H         1 UNK         0.0811 
    123 H123       34.0572   26.1390    6.8350 H         1 UNK         0.0811 
    124 H124       32.5480   25.2441    6.9023 H         1 UNK         0.0811 
    125 H125       31.5723   29.3606    4.8871 H         1 UNK         0.3204 
    126 H126       32.7485   31.4002    6.4650 H         1 UNK         0.0748 
    127 H127       32.0209   32.9115    4.6002 H         1 UNK         0.0771 
    128 H128       31.6882   31.5144    3.5884 H         1 UNK         0.0771 
    129 H129       30.7563   31.7873    5.0587 H         1 UNK         0.0771 
    130 H130       34.1887   29.4966    3.9835 H         1 UNK         0.2980 
    131 H131       36.4086   31.2305    3.3478 H         1 UNK         0.0545 
    132 H132       37.4180   29.3243    6.7579 H         1 UNK         0.3459 
    133 H133       35.7513   29.3713    6.2339 H         1 UNK         0.3459 
    134 H134       37.3134   29.1383    2.2195 H         1 UNK         0.0616 
    135 H135       35.7609   29.6885    1.6517 H         1 UNK         0.0616 
    136 H136       35.6874   27.6367    0.4390 H         1 UNK         0.0634 
    137 H137       36.4642   26.2239    1.1144 H         1 UNK         0.0634 
@<TRIPOS>BOND
     1    1    2 1    
     2    1   72 1    
     3    1   73 1    
     4    1   74 1    
     5    2    3 2    
     6    2    4 am   BACKBONE|DICT|INTERRES
     7    4    5 1    
     8    4   75 1    
     9    5    6 1    
    10    5   35 1    
    11    5   76 1    
    12    6    7 1    
    13    6   77 1    
    14    6   78 1    
    15    7    8 1    
    16    8    9 1    
    17    8   79 1    
    18    8   80 1    
    19    9   10 ar   
    20    9   14 ar   
    21   10   11 ar   
    22   10   81 1    
    23   11   12 ar   
    24   11   71 1    
    25   12   13 ar   
    26   12   82 1    
    27   13   14 ar   
    28   13   15 1    
    29   14   83 1    
    30   15   16 1    
    31   15   84 1    
    32   15   85 1    
    33   16   17 1    
    34   17   18 1    
    35   17   86 1    
    36   17   87 1    
    37   18   19 1    
    38   18   37 1    
    39   18   88 1    
    40   19   20 am   BACKBONE|DICT|INTERRES
    41   19   89 1    
    42   20   21 2    
    43   20   22 1    
    44   22   23 1    
    45   22   24 1    
    46   22   90 1    
    47   23   91 1    
    48   23   92 1    
    49   23   93 1    
    50   24   25 am   BACKBONE|DICT|INTERRES
    51   24   94 1    
    52   25   26 2    
    53   25   27 1    
    54   27   28 1    
    55   27   29 1    
    56   27   95 1    
    57   28   96 1    
    58   28   97 1    
    59   28   98 1    
    60   29   30 am   BACKBONE|DICT|INTERRES
    61   29   99 1    
    62   30   31 2    
    63   30   32 1    
    64   32   33 1    
    65   32   34 1    
    66   32  100 1    
    67   33  101 1    
    68   33  102 1    
    69   33  103 1    
    70   34   35 am   BACKBONE|DICT|INTERRES
    71   34  104 1    
    72   35   36 2    
    73   37   38 2    
    74   37   39 am   BACKBONE|DICT|INTERRES
    75   39   40 1    
    76   39  105 1    
    77   40   41 1    
    78   40   42 1    
    79   40  106 1    
    80   41  107 1    
    81   41  108 1    
    82   41  109 1    
    83   42   43 2    
    84   42   44 am   BACKBONE|DICT|INTERRES
    85   44   45 1    
    86   44  110 1    
    87   45   46 1    
    88   45   47 1    
    89   45  111 1    
    90   46  112 1    
    91   46  113 1    
    92   46  114 1    
    93   47   48 2    
    94   47   49 am   BACKBONE|DICT|INTERRES
    95   49   50 1    
    96   49  115 1    
    97   50   51 1    
    98   50   52 1    
    99   50  116 1    
   100   51  117 1    
   101   51  118 1    
   102   51  119 1    
   103   52   53 2    
   104   52   54 am   BACKBONE|DICT|INTERRES
   105   54   55 1    
   106   54  120 1    
   107   55   56 1    
   108   55   57 1    
   109   55  121 1    
   110   56  122 1    
   111   56  123 1    
   112   56  124 1    
   113   57   58 2    
   114   57   59 am   BACKBONE|DICT|INTERRES
   115   59   60 1    
   116   59  125 1    
   117   60   61 1    
   118   60   62 1    
   119   60  126 1    
   120   61  127 1    
   121   61  128 1    
   122   61  129 1    
   123   62   63 2    
   124   62   64 am   BACKBONE|DICT|INTERRES
   125   64   65 1    
   126   64  130 1    
   127   65   66 1    
   128   65   69 1    
   129   65  131 1    
   130   66   67 am   BACKBONE|DICT|INTERRES
   131   66   68 2    
   132   67  132 1    
   133   67  133 1    
   134   69   70 1    
   135   69  134 1    
   136   69  135 1    
   137   70   71 1    
   138   71  136 1    
   139   71  137 1    
@<TRIPOS>SUBSTRUCTURE
     1 UNK         1 GROUP             0       ****    0 ROOT    
