@<TRIPOS>MOLECULE
3R136
137   139    1
SMALL
USER_CHARGES


@<TRIPOS>ATOM
      1 CA         24.4832   22.9828    3.8429 C.3       0 UNK        -0.1979 
      2 C          24.9938   22.0307    2.7725 C.2       0 UNK         0.4864 
      3 O          24.3023   21.0726    2.4221 O.2       0 UNK        -0.5359 
      4 N          26.2059   22.2808    2.2621 N.am      1 UNK        -0.4318 
      5 CA         26.8408   21.4922    1.2007 C.3       1 UNK         0.0824 
      6 C6         28.3736   21.7115    1.1610 C.3       12 UNK        -0.0944 
      7 S7         29.1745   21.0226    2.6480 S.3       12 UNK        -0.2672 
      8 C8         30.6750   22.0556    2.7859 C.3       12 UNK         0.0333 
      9 C9         30.4576   23.4979    3.2508 C.ar      12 UNK        -0.0807 
     10 C10        31.4870   24.4222    3.0488 C.ar      12 UNK        -0.0894 
     11 C11        31.3559   25.7505    3.4656 C.ar      12 UNK        -0.0804 
     12 C12        30.1768   26.1591    4.0963 C.ar      12 UNK        -0.0824 
     13 C13        29.1322   25.2504    4.2964 C.ar      12 UNK        -0.0762 
     14 C14        29.2849   23.9223    3.8884 C.ar      12 UNK        -0.0782 
     15 C15        27.8269   25.6917    4.9409 C.3       12 UNK         0.0230 
     16 S16        26.5547   26.0385    3.6819 S.3       12 UNK        -0.2608 
     17 C17        27.1112   27.6487    3.0346 C.3       12 UNK        -0.0989 
     18 CA         27.8807   27.5186    1.6963 C.3       5 UNK         0.0716 
     19 N          27.0246   27.0417    0.6110 N.am      5 UNK        -0.4135 
     20 C          27.4822   26.5346   -0.5387 C.2       4 UNK         0.5031 
     21 O          28.6812   26.4195   -0.8047 O.2       4 UNK        -0.5229 
     22 CA         26.4084   26.0700   -1.5356 C.3       4 UNK         0.0329 
     23 CB         25.9166   27.2230   -2.4342 C.3       4 UNK        -0.2001 
     24 N          26.8492   24.8958   -2.2975 N.am      4 UNK        -0.4303 
     25 C          27.6983   24.8150   -3.3358 C.2       3 UNK         0.5044 
     26 O          28.1567   25.7872   -3.9375 O.2       3 UNK        -0.5152 
     27 CA         28.1324   23.4029   -3.7892 C.3       3 UNK         0.0319 
     28 CB         29.6458   23.2129   -3.5868 C.3       3 UNK        -0.2001 
     29 N          27.4327   22.3145   -3.1000 N.am      3 UNK        -0.4354 
     30 C          26.1702   21.9337   -3.3383 C.2       2 UNK         0.4964 
     31 O          25.4729   22.4038   -4.2374 O.2       2 UNK        -0.5047 
     32 CA         25.5710   20.8705   -2.3976 C.3       2 UNK         0.0288 
     33 CB         25.6414   19.4794   -3.0491 C.3       2 UNK        -0.2113 
     34 N          26.1837   20.8081   -1.0621 N.am      2 UNK        -0.4145 
     35 C          26.1996   21.8065   -0.1654 C.2       1 UNK         0.5006 
     36 O          25.7684   22.9390   -0.3973 O.2       1 UNK        -0.5103 
     37 C          28.5364   28.8643    1.3363 C.2       5 UNK         0.5055 
     38 O          27.8698   29.7496    0.7960 O.2       5 UNK        -0.5220 
     39 N          29.8070   29.0077    1.7270 N.am      6 UNK        -0.4450 
     40 CA         30.5737   30.2565    1.7158 C.3       6 UNK         0.0367 
     41 CB         31.7610   30.1269    0.7435 C.3       6 UNK        -0.1929 
     42 C          31.0183   30.6082    3.1474 C.2       6 UNK         0.5070 
     43 O          32.0960   31.1715    3.3451 O.2       6 UNK        -0.5237 
     44 N          30.1812   30.2630    4.1377 N.am      7 UNK        -0.4739 
     45 CA         30.4352   30.4577    5.5698 C.3       7 UNK         0.0276 
     46 CB         29.3157   29.7909    6.3845 C.3       7 UNK        -0.1927 
     47 C          30.5939   31.9335    5.9726 C.2       7 UNK         0.5013 
     48 O          31.3731   32.2289    6.8774 O.2       7 UNK        -0.5193 
     49 N          29.9149   32.8378    5.2514 N.am      8 UNK        -0.4253 
     50 CA         30.0422   34.2931    5.3899 C.3       8 UNK         0.0242 
     51 CB         28.9721   34.9788    4.5251 C.3       8 UNK        -0.2000 
     52 C          31.4438   34.8300    5.0375 C.2       8 UNK         0.4948 
     53 O          31.8341   35.8737    5.5611 O.2       8 UNK        -0.5275 
     54 N          32.1789   34.1029    4.1842 N.am      9 UNK        -0.4246 
     55 CA         33.5745   34.3709    3.8313 C.3       9 UNK         0.0261 
     56 CB         33.7542   34.1127    2.3241 C.3       9 UNK        -0.1959 
     57 C          34.5567   33.5105    4.6516 C.2       9 UNK         0.5033 
     58 O          35.7602   33.5902    4.4033 O.2       9 UNK        -0.5390 
     59 N          34.0396   32.6982    5.5892 N.am      10 UNK        -0.4215 
     60 CA         34.7398   31.6779    6.3780 C.3       10 UNK         0.0240 
     61 CB         35.7762   32.3168    7.3281 C.3       10 UNK        -0.1982 
     62 C          35.3229   30.5440    5.5097 C.2       10 UNK         0.4970 
     63 O          36.3920   30.0206    5.8306 O.2       10 UNK        -0.4916 
     64 N          34.6019   30.1783    4.4391 N.am      11 UNK        -0.4279 
     65 CA         34.9772   29.1577    3.4489 C.3       11 UNK         0.1003 
     66 C          36.2660   29.5332    2.6525 C.2       11 UNK         0.5709 
     67 N          37.0319   28.5686    2.1578 N.am      11 UNK        -0.7358 
     68 O          36.5500   30.7060    2.4183 O.2       11 UNK        -0.4999 
     69 C69        34.9721   27.7116    4.0332 C.3       12 UNK        -0.0954 
     70 S70        33.3586   27.2102    4.7242 S.3       12 UNK        -0.2268 
     71 C71        32.4819   26.7399    3.2018 C.3       12 UNK         0.0203 
     72 H72        25.3013   23.3732    4.4475 H         1 UNK         0.0888 
     73 H73        23.9608   23.8216    3.3837 H         1 UNK         0.0888 
     74 H74        23.7902   22.4718    4.5109 H         1 UNK         0.0888 
     75 H75        26.7020   23.1118    2.5478 H         1 UNK         0.3017 
     76 H76        26.6538   20.4366    1.4121 H         1 UNK         0.0873 
     77 H77        28.6101   22.7736    1.0674 H         1 UNK         0.0745 
     78 H78        28.8197   21.2186    0.2949 H         1 UNK         0.0745 
     79 H79        31.1823   22.0529    1.8197 H         1 UNK         0.0705 
     80 H80        31.3533   21.5725    3.4903 H         1 UNK         0.0705 
     81 H81        32.3990   24.1033    2.5621 H         1 UNK         0.1334 
     82 H82        30.0732   27.1835    4.4247 H         1 UNK         0.1417 
     83 H83        28.4791   23.2263    4.0702 H         1 UNK         0.1562 
     84 H84        27.9780   26.5661    5.5754 H         1 UNK         0.0748 
     85 H85        27.4611   24.9029    5.6002 H         1 UNK         0.0748 
     86 H86        27.7219   28.1345    3.7971 H         1 UNK         0.0940 
     87 H87        26.2350   28.2886    2.9107 H         1 UNK         0.0940 
     88 H88        28.6739   26.7797    1.8269 H         1 UNK         0.0703 
     89 H89        26.0296   27.1265    0.7561 H         1 UNK         0.3081 
     90 H90        25.5530   25.7195   -0.9553 H         1 UNK         0.0719 
     91 H91        26.7372   27.7103   -2.9613 H         1 UNK         0.0809 
     92 H92        25.1990   26.8722   -3.1758 H         1 UNK         0.0809 
     93 H93        25.4209   27.9916   -1.8402 H         1 UNK         0.0809 
     94 H94        26.5545   24.0202   -1.8772 H         1 UNK         0.2990 
     95 H95        27.9195   23.3278   -4.8577 H         1 UNK         0.0690 
     96 H96        29.9779   22.2410   -3.9523 H         1 UNK         0.0788 
     97 H97        29.9245   23.2924   -2.5351 H         1 UNK         0.0788 
     98 H98        30.2119   23.9707   -4.1305 H         1 UNK         0.0788 
     99 H99        27.9331   21.8595   -2.3510 H         1 UNK         0.2993 
    100 H100       24.5190   21.1296   -2.2589 H         1 UNK         0.0949 
    101 H101       25.1233   18.7319   -2.4478 H         1 UNK         0.0767 
    102 H102       25.1687   19.4836   -4.0325 H         1 UNK         0.0767 
    103 H103       26.6720   19.1485   -3.1844 H         1 UNK         0.0767 
    104 H104       26.5716   19.9143   -0.7945 H         1 UNK         0.3013 
    105 H105       30.2690   28.2146    2.1476 H         1 UNK         0.3121 
    106 H106       29.9487   31.0853    1.3771 H         1 UNK         0.0774 
    107 H107       32.3375   31.0520    0.7000 H         1 UNK         0.0815 
    108 H108       32.4436   29.3297    1.0354 H         1 UNK         0.0815 
    109 H109       31.4170   29.9156   -0.2690 H         1 UNK         0.0815 
    110 H110       29.2978   29.8461    3.8881 H         1 UNK         0.2987 
    111 H111       31.3763   29.9560    5.8081 H         1 UNK         0.0949 
    112 H112       28.3375   30.2148    6.1541 H         1 UNK         0.0806 
    113 H113       29.2715   28.7183    6.1981 H         1 UNK         0.0806 
    114 H114       29.4826   29.9214    7.4548 H         1 UNK         0.0806 
    115 H115       29.2975   32.5005    4.5273 H         1 UNK         0.3010 
    116 H116       29.8520   34.5445    6.4356 H         1 UNK         0.0829 
    117 H117       27.9674   34.6751    4.8201 H         1 UNK         0.0813 
    118 H118       29.0232   36.0637    4.6291 H         1 UNK         0.0813 
    119 H119       29.0975   34.7473    3.4666 H         1 UNK         0.0813 
    120 H120       31.7962   33.2383    3.8191 H         1 UNK         0.3038 
    121 H121       33.8168   35.4173    4.0283 H         1 UNK         0.0769 
    122 H122       34.7651   34.3649    2.0009 H         1 UNK         0.0811 
    123 H123       33.0667   34.7171    1.7323 H         1 UNK         0.0811 
    124 H124       33.5856   33.0653    2.0707 H         1 UNK         0.0811 
    125 H125       33.0399   32.7394    5.7530 H         1 UNK         0.3204 
    126 H126       33.9777   31.2079    7.0012 H         1 UNK         0.0748 
    127 H127       36.1819   31.5760    8.0183 H         1 UNK         0.0771 
    128 H128       36.6175   32.7458    6.7832 H         1 UNK         0.0771 
    129 H129       35.3276   33.1068    7.9303 H         1 UNK         0.0771 
    130 H130       33.7497   30.6849    4.2200 H         1 UNK         0.2980 
    131 H131       34.1891   29.2000    2.6982 H         1 UNK         0.0545 
    132 H132       36.8182   27.5973    2.3172 H         1 UNK         0.3459 
    133 H133       37.8491   28.8211    1.6244 H         1 UNK         0.3459 
    134 H134       35.2463   26.9778    3.2748 H         1 UNK         0.0616 
    135 H135       35.7218   27.6162    4.8198 H         1 UNK         0.0616 
    136 H136       32.0829   27.6396    2.7373 H         1 UNK         0.0634 
    137 H137       33.1867   26.3163    2.4850 H         1 UNK         0.0634 
@<TRIPOS>BOND
     1    1    2 1    
     2    1   72 1    
     3    1   73 1    
     4    1   74 1    
     5    2    3 2    
     6    2    4 am   BACKBONE|DICT|INTERRES
     7    4    5 1    
     8    4   75 1    
     9    5    6 1    
    10    5   35 1    
    11    5   76 1    
    12    6    7 1    
    13    6   77 1    
    14    6   78 1    
    15    7    8 1    
    16    8    9 1    
    17    8   79 1    
    18    8   80 1    
    19    9   10 ar   
    20    9   14 ar   
    21   10   11 ar   
    22   10   81 1    
    23   11   12 ar   
    24   11   71 1    
    25   12   13 ar   
    26   12   82 1    
    27   13   14 ar   
    28   13   15 1    
    29   14   83 1    
    30   15   16 1    
    31   15   84 1    
    32   15   85 1    
    33   16   17 1    
    34   17   18 1    
    35   17   86 1    
    36   17   87 1    
    37   18   19 1    
    38   18   37 1    
    39   18   88 1    
    40   19   20 am   BACKBONE|DICT|INTERRES
    41   19   89 1    
    42   20   21 2    
    43   20   22 1    
    44   22   23 1    
    45   22   24 1    
    46   22   90 1    
    47   23   91 1    
    48   23   92 1    
    49   23   93 1    
    50   24   25 am   BACKBONE|DICT|INTERRES
    51   24   94 1    
    52   25   26 2    
    53   25   27 1    
    54   27   28 1    
    55   27   29 1    
    56   27   95 1    
    57   28   96 1    
    58   28   97 1    
    59   28   98 1    
    60   29   30 am   BACKBONE|DICT|INTERRES
    61   29   99 1    
    62   30   31 2    
    63   30   32 1    
    64   32   33 1    
    65   32   34 1    
    66   32  100 1    
    67   33  101 1    
    68   33  102 1    
    69   33  103 1    
    70   34   35 am   BACKBONE|DICT|INTERRES
    71   34  104 1    
    72   35   36 2    
    73   37   38 2    
    74   37   39 am   BACKBONE|DICT|INTERRES
    75   39   40 1    
    76   39  105 1    
    77   40   41 1    
    78   40   42 1    
    79   40  106 1    
    80   41  107 1    
    81   41  108 1    
    82   41  109 1    
    83   42   43 2    
    84   42   44 am   BACKBONE|DICT|INTERRES
    85   44   45 1    
    86   44  110 1    
    87   45   46 1    
    88   45   47 1    
    89   45  111 1    
    90   46  112 1    
    91   46  113 1    
    92   46  114 1    
    93   47   48 2    
    94   47   49 am   BACKBONE|DICT|INTERRES
    95   49   50 1    
    96   49  115 1    
    97   50   51 1    
    98   50   52 1    
    99   50  116 1    
   100   51  117 1    
   101   51  118 1    
   102   51  119 1    
   103   52   53 2    
   104   52   54 am   BACKBONE|DICT|INTERRES
   105   54   55 1    
   106   54  120 1    
   107   55   56 1    
   108   55   57 1    
   109   55  121 1    
   110   56  122 1    
   111   56  123 1    
   112   56  124 1    
   113   57   58 2    
   114   57   59 am   BACKBONE|DICT|INTERRES
   115   59   60 1    
   116   59  125 1    
   117   60   61 1    
   118   60   62 1    
   119   60  126 1    
   120   61  127 1    
   121   61  128 1    
   122   61  129 1    
   123   62   63 2    
   124   62   64 am   BACKBONE|DICT|INTERRES
   125   64   65 1    
   126   64  130 1    
   127   65   66 1    
   128   65   69 1    
   129   65  131 1    
   130   66   67 am   BACKBONE|DICT|INTERRES
   131   66   68 2    
   132   67  132 1    
   133   67  133 1    
   134   69   70 1    
   135   69  134 1    
   136   69  135 1    
   137   70   71 1    
   138   71  136 1    
   139   71  137 1    
@<TRIPOS>SUBSTRUCTURE
     1 UNK         1 GROUP             0       ****    0 ROOT    
