@<TRIPOS>MOLECULE
3R136
137   139    1
SMALL
USER_CHARGES


@<TRIPOS>ATOM
      1 CA         24.2966   23.0826    2.0775 C.3       0 UNK        -0.1979 
      2 C          25.4270   22.7743    1.1065 C.2       0 UNK         0.4864 
      3 O          25.2042   22.7641   -0.1042 O.2       0 UNK        -0.5359 
      4 N          26.6365   22.5297    1.6295 N.am      1 UNK        -0.4318 
      5 CA         27.8571   22.2424    0.8677 C.3       1 UNK         0.0824 
      6 C6         29.0141   21.8759    1.8249 C.3       12 UNK        -0.0944 
      7 S7         30.4561   21.1464    0.9780 S.3       12 UNK        -0.2672 
      8 C8         31.5193   20.7262    2.3962 C.3       12 UNK         0.0333 
      9 C9         32.0334   21.9681    3.1117 C.ar      12 UNK        -0.0807 
     10 C10        33.2229   22.5792    2.7030 C.ar      12 UNK        -0.0894 
     11 C11        33.7014   23.7136    3.3665 C.ar      12 UNK        -0.0804 
     12 C12        32.9721   24.2461    4.4348 C.ar      12 UNK        -0.0824 
     13 C13        31.7732   23.6540    4.8399 C.ar      12 UNK        -0.0762 
     14 C14        31.3220   22.5027    4.1899 C.ar      12 UNK        -0.0782 
     15 C15        30.9652   24.2456    5.9848 C.3       12 UNK         0.0230 
     16 S16        29.4317   25.0334    5.3947 S.3       12 UNK        -0.2608 
     17 C17        30.0544   26.5410    4.5706 C.3       12 UNK        -0.0989 
     18 CA         29.8077   26.5460    3.0338 C.3       5 UNK         0.0716 
     19 N          28.4076   26.3100    2.6464 N.am      5 UNK        -0.4135 
     20 C          27.3414   27.0559    2.9739 C.2       4 UNK         0.5031 
     21 O          27.3907   28.0566    3.6920 O.2       4 UNK        -0.5229 
     22 CA         26.0022   26.6097    2.3508 C.3       4 UNK         0.0329 
     23 CB         24.8035   27.4627    2.8148 C.3       4 UNK        -0.2001 
     24 N          26.0493   26.5389    0.8821 N.am      4 UNK        -0.4303 
     25 C          26.3496   27.5298    0.0275 C.2       3 UNK         0.5044 
     26 O          26.6391   28.6756    0.3710 O.2       3 UNK        -0.5152 
     27 CA         26.4163   27.1394   -1.4559 C.3       3 UNK         0.0319 
     28 CB         26.7720   28.3231   -2.3805 C.3       3 UNK        -0.2001 
     29 N          27.3977   26.0685   -1.5850 N.am      3 UNK        -0.4354 
     30 C          27.5610   25.2291   -2.6093 C.2       2 UNK         0.4964 
     31 O          26.9028   25.2666   -3.6491 O.2       2 UNK        -0.5047 
     32 CA         28.6445   24.1496   -2.4269 C.3       2 UNK         0.0288 
     33 CB         30.0492   24.7698   -2.2653 C.3       2 UNK        -0.2113 
     34 N          28.3485   23.1984   -1.3445 N.am      2 UNK        -0.4145 
     35 C          28.2363   23.4382   -0.0287 C.2       1 UNK         0.5006 
     36 O          28.4057   24.5431    0.4969 O.2       1 UNK        -0.5103 
     37 C          30.3764   27.8103    2.3477 C.2       5 UNK         0.5055 
     38 O          31.2749   28.4526    2.8955 O.2       5 UNK        -0.5220 
     39 N          29.8300   28.1425    1.1653 N.am      6 UNK        -0.4450 
     40 CA         30.0218   29.3783    0.4008 C.3       6 UNK         0.0367 
     41 CB         31.4651   29.4866   -0.1323 C.3       6 UNK        -0.1929 
     42 C          29.5892   30.5919    1.2403 C.2       6 UNK         0.5070 
     43 O          30.4390   31.3019    1.7751 O.2       6 UNK        -0.5237 
     44 N          28.2693   30.7483    1.4078 N.am      7 UNK        -0.4739 
     45 CA         27.6168   31.7190    2.2926 C.3       7 UNK         0.0276 
     46 CB         26.1017   31.6890    2.0381 C.3       7 UNK        -0.1927 
     47 C          28.1517   33.1647    2.1488 C.2       7 UNK         0.5013 
     48 O          28.2283   33.6485    1.0185 O.2       7 UNK        -0.5193 
     49 N          28.4901   33.8794    3.2331 N.am      8 UNK        -0.4253 
     50 CA         28.4715   33.4811    4.6422 C.3       8 UNK         0.0242 
     51 CB         28.1569   34.7262    5.4927 C.3       8 UNK        -0.2000 
     52 C          29.8170   32.8497    5.0499 C.2       8 UNK         0.4948 
     53 O          30.7338   33.5788    5.4327 O.2       8 UNK        -0.5275 
     54 N          29.8976   31.5121    4.9769 N.am      9 UNK        -0.4246 
     55 CA         30.9870   30.6510    5.4608 C.3       9 UNK         0.0261 
     56 CB         30.9776   30.6121    7.0040 C.3       9 UNK        -0.1959 
     57 C          32.3890   30.9629    4.8907 C.2       9 UNK         0.5033 
     58 O          33.3847   30.7729    5.5941 O.2       9 UNK        -0.5390 
     59 N          32.4674   31.4084    3.6287 N.am      10 UNK        -0.4215 
     60 CA         33.7159   31.7768    2.9519 C.3       10 UNK         0.0240 
     61 CB         33.4024   32.5485    1.6598 C.3       10 UNK        -0.1982 
     62 C          34.6474   30.5855    2.6657 C.2       10 UNK         0.4970 
     63 O          35.8430   30.8055    2.4660 O.2       10 UNK        -0.4916 
     64 N          34.1107   29.3568    2.6731 N.am      11 UNK        -0.4279 
     65 CA         34.8957   28.1143    2.6452 C.3       11 UNK         0.1003 
     66 C          35.7219   27.8736    3.9466 C.2       11 UNK         0.5709 
     67 N          35.3820   28.4844    5.0778 N.am      11 UNK        -0.7358 
     68 O          36.7108   27.1460    3.9254 O.2       11 UNK        -0.4999 
     69 C69        33.9874   26.9068    2.2883 C.3       12 UNK        -0.0954 
     70 S70        34.8629   25.4874    1.5487 S.3       12 UNK        -0.2268 
     71 C71        35.0264   24.3390    2.9547 C.3       12 UNK         0.0203 
     72 H72        23.5228   22.3189    2.0043 H         1 UNK         0.0888 
     73 H73        24.6423   23.1166    3.1105 H         1 UNK         0.0888 
     74 H74        23.8464   24.0458    1.8387 H         1 UNK         0.0888 
     75 H75        26.7508   22.5610    2.6323 H         1 UNK         0.3017 
     76 H76        27.6427   21.3774    0.2364 H         1 UNK         0.0873 
     77 H77        29.3299   22.7574    2.3853 H         1 UNK         0.0745 
     78 H78        28.6691   21.1500    2.5633 H         1 UNK         0.0745 
     79 H79        32.3612   20.1310    2.0395 H         1 UNK         0.0705 
     80 H80        30.9687   20.0871    3.0883 H         1 UNK         0.0705 
     81 H81        33.7812   22.1675    1.8731 H         1 UNK         0.1334 
     82 H82        33.3400   25.1208    4.9536 H         1 UNK         0.1417 
     83 H83        30.4010   22.0363    4.5125 H         1 UNK         0.1562 
     84 H84        31.5537   24.9688    6.5517 H         1 UNK         0.0748 
     85 H85        30.7041   23.4512    6.6855 H         1 UNK         0.0748 
     86 H86        31.1195   26.6475    4.7827 H         1 UNK         0.0940 
     87 H87        29.5744   27.4020    5.0381 H         1 UNK         0.0940 
     88 H88        30.3732   25.7116    2.6148 H         1 UNK         0.0703 
     89 H89        28.2763   25.5375    1.9955 H         1 UNK         0.3081 
     90 H90        25.8327   25.5931    2.7069 H         1 UNK         0.0719 
     91 H91        24.8936   28.4989    2.4908 H         1 UNK         0.0809 
     92 H92        23.8643   27.0711    2.4243 H         1 UNK         0.0809 
     93 H93        24.7252   27.4681    3.9026 H         1 UNK         0.0809 
     94 H94        25.8670   25.6281    0.4840 H         1 UNK         0.2990 
     95 H95        25.4337   26.7560   -1.7378 H         1 UNK         0.0690 
     96 H96        26.7293   28.0361   -3.4310 H         1 UNK         0.0788 
     97 H97        27.7730   28.7049   -2.1807 H         1 UNK         0.0788 
     98 H98        26.0721   29.1489   -2.2456 H         1 UNK         0.0788 
     99 H99        27.9386   25.8568   -0.7507 H         1 UNK         0.2993 
    100 H100       28.6544   23.5625   -3.3470 H         1 UNK         0.0949 
    101 H101       30.1450   25.3591   -1.3530 H         1 UNK         0.0767 
    102 H102       30.8182   23.9975   -2.2410 H         1 UNK         0.0767 
    103 H103       30.2806   25.4302   -3.1021 H         1 UNK         0.0767 
    104 H104       28.1558   22.2571   -1.6583 H         1 UNK         0.3013 
    105 H105       29.0792   27.5540    0.8394 H         1 UNK         0.3121 
    106 H106       29.3559   29.3285   -0.4614 H         1 UNK         0.0774 
    107 H107       31.5837   30.3802   -0.7457 H         1 UNK         0.0815 
    108 H108       32.1965   29.5480    0.6715 H         1 UNK         0.0815 
    109 H109       31.7232   28.6283   -0.7521 H         1 UNK         0.0815 
    110 H110       27.6502   30.0701    0.9653 H         1 UNK         0.2987 
    111 H111       27.7845   31.3314    3.2920 H         1 UNK         0.0949 
    112 H112       25.8612   31.9737    1.0130 H         1 UNK         0.0806 
    113 H113       25.6909   30.6954    2.2133 H         1 UNK         0.0806 
    114 H114       25.5780   32.3778    2.7024 H         1 UNK         0.0806 
    115 H115       28.8634   34.8027    3.0678 H         1 UNK         0.3010 
    116 H116       27.6653   32.7746    4.8416 H         1 UNK         0.0829 
    117 H117       27.1720   35.1291    5.2553 H         1 UNK         0.0813 
    118 H118       28.1579   34.4823    6.5560 H         1 UNK         0.0813 
    119 H119       28.8874   35.5222    5.3412 H         1 UNK         0.0813 
    120 H120       29.1082   31.0074    4.6015 H         1 UNK         0.3038 
    121 H121       30.7458   29.6459    5.1169 H         1 UNK         0.0769 
    122 H122       31.6825   29.8716    7.3842 H         1 UNK         0.0811 
    123 H123       29.9939   30.3442    7.3895 H         1 UNK         0.0811 
    124 H124       31.2553   31.5764    7.4311 H         1 UNK         0.0811 
    125 H125       31.6175   31.4497    3.0622 H         1 UNK         0.3204 
    126 H126       34.2576   32.4511    3.6184 H         1 UNK         0.0748 
    127 H127       34.3167   32.9223    1.1972 H         1 UNK         0.0771 
    128 H128       32.9008   31.9200    0.9244 H         1 UNK         0.0771 
    129 H129       32.7622   33.4087    1.8566 H         1 UNK         0.0771 
    130 H130       33.1130   29.2501    2.8336 H         1 UNK         0.2980 
    131 H131       35.6216   28.2273    1.8377 H         1 UNK         0.0545 
    132 H132       35.9387   28.3268    5.9022 H         1 UNK         0.3459 
    133 H133       34.6134   29.1437    5.1122 H         1 UNK         0.3459 
    134 H134       33.2644   27.2133    1.5312 H         1 UNK         0.0616 
    135 H135       33.3921   26.5991    3.1463 H         1 UNK         0.0616 
    136 H136       35.7255   23.5500    2.6738 H         1 UNK         0.0634 
    137 H137       35.4814   24.8497    3.8028 H         1 UNK         0.0634 
@<TRIPOS>BOND
     1    1    2 1    
     2    1   72 1    
     3    1   73 1    
     4    1   74 1    
     5    2    3 2    
     6    2    4 am   BACKBONE|DICT|INTERRES
     7    4    5 1    
     8    4   75 1    
     9    5    6 1    
    10    5   35 1    
    11    5   76 1    
    12    6    7 1    
    13    6   77 1    
    14    6   78 1    
    15    7    8 1    
    16    8    9 1    
    17    8   79 1    
    18    8   80 1    
    19    9   10 ar   
    20    9   14 ar   
    21   10   11 ar   
    22   10   81 1    
    23   11   12 ar   
    24   11   71 1    
    25   12   13 ar   
    26   12   82 1    
    27   13   14 ar   
    28   13   15 1    
    29   14   83 1    
    30   15   16 1    
    31   15   84 1    
    32   15   85 1    
    33   16   17 1    
    34   17   18 1    
    35   17   86 1    
    36   17   87 1    
    37   18   19 1    
    38   18   37 1    
    39   18   88 1    
    40   19   20 am   BACKBONE|DICT|INTERRES
    41   19   89 1    
    42   20   21 2    
    43   20   22 1    
    44   22   23 1    
    45   22   24 1    
    46   22   90 1    
    47   23   91 1    
    48   23   92 1    
    49   23   93 1    
    50   24   25 am   BACKBONE|DICT|INTERRES
    51   24   94 1    
    52   25   26 2    
    53   25   27 1    
    54   27   28 1    
    55   27   29 1    
    56   27   95 1    
    57   28   96 1    
    58   28   97 1    
    59   28   98 1    
    60   29   30 am   BACKBONE|DICT|INTERRES
    61   29   99 1    
    62   30   31 2    
    63   30   32 1    
    64   32   33 1    
    65   32   34 1    
    66   32  100 1    
    67   33  101 1    
    68   33  102 1    
    69   33  103 1    
    70   34   35 am   BACKBONE|DICT|INTERRES
    71   34  104 1    
    72   35   36 2    
    73   37   38 2    
    74   37   39 am   BACKBONE|DICT|INTERRES
    75   39   40 1    
    76   39  105 1    
    77   40   41 1    
    78   40   42 1    
    79   40  106 1    
    80   41  107 1    
    81   41  108 1    
    82   41  109 1    
    83   42   43 2    
    84   42   44 am   BACKBONE|DICT|INTERRES
    85   44   45 1    
    86   44  110 1    
    87   45   46 1    
    88   45   47 1    
    89   45  111 1    
    90   46  112 1    
    91   46  113 1    
    92   46  114 1    
    93   47   48 2    
    94   47   49 am   BACKBONE|DICT|INTERRES
    95   49   50 1    
    96   49  115 1    
    97   50   51 1    
    98   50   52 1    
    99   50  116 1    
   100   51  117 1    
   101   51  118 1    
   102   51  119 1    
   103   52   53 2    
   104   52   54 am   BACKBONE|DICT|INTERRES
   105   54   55 1    
   106   54  120 1    
   107   55   56 1    
   108   55   57 1    
   109   55  121 1    
   110   56  122 1    
   111   56  123 1    
   112   56  124 1    
   113   57   58 2    
   114   57   59 am   BACKBONE|DICT|INTERRES
   115   59   60 1    
   116   59  125 1    
   117   60   61 1    
   118   60   62 1    
   119   60  126 1    
   120   61  127 1    
   121   61  128 1    
   122   61  129 1    
   123   62   63 2    
   124   62   64 am   BACKBONE|DICT|INTERRES
   125   64   65 1    
   126   64  130 1    
   127   65   66 1    
   128   65   69 1    
   129   65  131 1    
   130   66   67 am   BACKBONE|DICT|INTERRES
   131   66   68 2    
   132   67  132 1    
   133   67  133 1    
   134   69   70 1    
   135   69  134 1    
   136   69  135 1    
   137   70   71 1    
   138   71  136 1    
   139   71  137 1    
@<TRIPOS>SUBSTRUCTURE
     1 UNK         1 GROUP             0       ****    0 ROOT    
