@<TRIPOS>MOLECULE
3R136
137   139    1
SMALL
USER_CHARGES


@<TRIPOS>ATOM
      1 CA         31.7829   22.3791   -2.6710 C.3       0 UNK        -0.1979 
      2 C          31.2681   23.0527   -1.4076 C.2       0 UNK         0.4864 
      3 O          31.3749   24.2709   -1.2812 O.2       0 UNK        -0.5359 
      4 N          30.7192   22.2646   -0.4743 N.am      1 UNK        -0.4318 
      5 CA         30.1532   22.7202    0.8033 C.3       1 UNK         0.0824 
      6 C6         29.9168   21.5268    1.7630 C.3       12 UNK        -0.0944 
      7 S7         31.4764   20.6608    2.1612 S.3       12 UNK        -0.2672 
      8 C8         31.5608   20.7866    3.9777 C.3       12 UNK         0.0333 
      9 C9         31.4581   22.2230    4.4716 C.ar      12 UNK        -0.0807 
     10 C10        32.4561   23.1508    4.1676 C.ar      12 UNK        -0.0894 
     11 C11        32.3494   24.4753    4.6008 C.ar      12 UNK        -0.0804 
     12 C12        31.2431   24.8665    5.3632 C.ar      12 UNK        -0.0824 
     13 C13        30.2339   23.9441    5.6741 C.ar      12 UNK        -0.0762 
     14 C14        30.3553   22.6251    5.2284 C.ar      12 UNK        -0.0782 
     15 C15        29.0059   24.3223    6.5010 C.3       12 UNK         0.0230 
     16 S16        28.3728   26.0104    6.2294 S.3       12 UNK        -0.2608 
     17 C17        28.0462   26.0514    4.4310 C.3       12 UNK        -0.0989 
     18 CA         28.4847   27.4124    3.8383 C.3       5 UNK         0.0716 
     19 N          28.8306   27.3448    2.4148 N.am      5 UNK        -0.4135 
     20 C          29.4446   28.3437    1.7588 C.2       4 UNK         0.5031 
     21 O          29.8268   29.3832    2.2976 O.2       4 UNK        -0.5229 
     22 CA         29.6242   28.1905    0.2421 C.3       4 UNK         0.0329 
     23 CB         30.8403   27.3101   -0.0691 C.3       4 UNK        -0.2001 
     24 N          28.4365   27.6538   -0.4240 N.am      4 UNK        -0.4303 
     25 C          27.2264   28.2287   -0.4363 C.2       3 UNK         0.5044 
     26 O          26.9825   29.3010    0.1142 O.2       3 UNK        -0.5152 
     27 CA         26.0770   27.4766   -1.1350 C.3       3 UNK         0.0319 
     28 CB         26.0281   27.8043   -2.6400 C.3       3 UNK        -0.2001 
     29 N          26.0625   26.0267   -0.8830 N.am      3 UNK        -0.4354 
     30 C          26.9486   25.1043   -1.2824 C.2       2 UNK         0.4964 
     31 O          27.9060   25.3370   -2.0234 O.2       2 UNK        -0.5047 
     32 CA         26.7462   23.6851   -0.7316 C.3       2 UNK         0.0288 
     33 CB         26.0427   22.7969   -1.7702 C.3       2 UNK        -0.2113 
     34 N          28.0191   23.0698   -0.3525 N.am      2 UNK        -0.4145 
     35 C          28.8459   23.5172    0.6066 C.2       1 UNK         0.5006 
     36 O          28.6114   24.5017    1.3145 O.2       1 UNK        -0.5103 
     37 C          27.4595   28.5282    4.1324 C.2       5 UNK         0.5055 
     38 O          27.6727   29.3143    5.0575 O.2       5 UNK        -0.5220 
     39 N          26.4031   28.6107    3.3074 N.am      6 UNK        -0.4450 
     40 CA         25.3428   29.6237    3.3904 C.3       6 UNK         0.0367 
     41 CB         24.2268   29.2872    2.3887 C.3       6 UNK        -0.1929 
     42 C          25.8483   31.0626    3.1783 C.2       6 UNK         0.5070 
     43 O          25.3010   31.9905    3.7726 O.2       6 UNK        -0.5237 
     44 N          26.9212   31.2161    2.3924 N.am      7 UNK        -0.4739 
     45 CA         27.6772   32.4552    2.1905 C.3       7 UNK         0.0276 
     46 CB         28.3851   32.3741    0.8262 C.3       7 UNK        -0.1927 
     47 C          28.6635   32.7756    3.3390 C.2       7 UNK         0.5013 
     48 O          29.6044   33.5401    3.1233 O.2       7 UNK        -0.5193 
     49 N          28.4297   32.2050    4.5310 N.am      8 UNK        -0.4253 
     50 CA         29.1997   32.3360    5.7721 C.3       8 UNK         0.0242 
     51 CB         29.2447   33.8001    6.2622 C.3       8 UNK        -0.2000 
     52 C          30.5858   31.6781    5.6661 C.2       8 UNK         0.4948 
     53 O          31.5956   32.3096    5.9837 O.2       8 UNK        -0.5275 
     54 N          30.5900   30.4079    5.2330 N.am      9 UNK        -0.4246 
     55 CA         31.7587   29.5339    5.0600 C.3       9 UNK         0.0261 
     56 CB         32.3694   29.1590    6.4269 C.3       9 UNK        -0.1959 
     57 C          32.7908   30.1012    4.0686 C.2       9 UNK         0.5033 
     58 O          33.9910   30.1047    4.3499 O.2       9 UNK        -0.5390 
     59 N          32.3101   30.5306    2.8952 N.am      10 UNK        -0.4215 
     60 CA         33.1058   31.0538    1.7790 C.3       10 UNK         0.0240 
     61 CB         32.2140   31.9731    0.9247 C.3       10 UNK        -0.1982 
     62 C          33.7533   29.9271    0.9456 C.2       10 UNK         0.4970 
     63 O          33.7416   29.9823   -0.2855 O.2       10 UNK        -0.4916 
     64 N          34.2759   28.9081    1.6320 N.am      11 UNK        -0.4279 
     65 CA         34.9075   27.7184    1.0562 C.3       11 UNK         0.1003 
     66 C          36.3427   28.0084    0.5421 C.2       11 UNK         0.5709 
     67 N          36.8002   27.2715   -0.4611 N.am      11 UNK        -0.7358 
     68 O          37.0568   28.8648    1.0619 O.2       11 UNK        -0.4999 
     69 C69        34.8973   26.5479    2.0713 C.3       12 UNK        -0.0954 
     70 S70        33.2013   26.0371    2.5100 S.3       12 UNK        -0.2268 
     71 C71        33.4309   25.4735    4.2222 C.3       12 UNK         0.0203 
     72 H72        32.8480   22.5748   -2.7923 H         1 UNK         0.0888 
     73 H73        31.6372   21.2993   -2.6473 H         1 UNK         0.0888 
     74 H74        31.2622   22.7730   -3.5434 H         1 UNK         0.0888 
     75 H75        30.7036   21.2653   -0.6211 H         1 UNK         0.3017 
     76 H76        30.8726   23.3990    1.2684 H         1 UNK         0.0873 
     77 H77        29.4337   21.8619    2.6817 H         1 UNK         0.0745 
     78 H78        29.2322   20.8025    1.3175 H         1 UNK         0.0745 
     79 H79        30.7714   20.1687    4.4085 H         1 UNK         0.0705 
     80 H80        32.5044   20.3579    4.3178 H         1 UNK         0.0705 
     81 H81        33.3063   22.8465    3.5720 H         1 UNK         0.1334 
     82 H82        31.1642   25.8897    5.7031 H         1 UNK         0.1417 
     83 H83        29.5825   21.9067    5.4670 H         1 UNK         0.1562 
     84 H84        29.2547   24.2125    7.5572 H         1 UNK         0.0748 
     85 H85        28.1885   23.6266    6.3043 H         1 UNK         0.0748 
     86 H86        26.9921   25.8400    4.2408 H         1 UNK         0.0940 
     87 H87        28.6013   25.2434    3.9529 H         1 UNK         0.0940 
     88 H88        29.4077   27.6955    4.3429 H         1 UNK         0.0703 
     89 H89        28.6011   26.4892    1.9184 H         1 UNK         0.3081 
     90 H90        29.8092   29.1841   -0.1713 H         1 UNK         0.0719 
     91 H91        31.7466   27.7326    0.3642 H         1 UNK         0.0809 
     92 H92        30.7245   26.3047    0.3378 H         1 UNK         0.0809 
     93 H93        31.0066   27.2195   -1.1425 H         1 UNK         0.0809 
     94 H94        28.5394   26.7753   -0.9250 H         1 UNK         0.2990 
     95 H95        25.1522   27.8541   -0.6957 H         1 UNK         0.0690 
     96 H96        25.1846   27.3136   -3.1255 H         1 UNK         0.0788 
     97 H97        26.9377   27.4997   -3.1583 H         1 UNK         0.0788 
     98 H98        25.9135   28.8776   -2.7976 H         1 UNK         0.0788 
     99 H99        25.3180   25.7178   -0.2728 H         1 UNK         0.2993 
    100 H100       26.1254   23.7362    0.1656 H         1 UNK         0.0949 
    101 H101       25.8563   21.7969   -1.3778 H         1 UNK         0.0767 
    102 H102       25.0768   23.2174   -2.0541 H         1 UNK         0.0767 
    103 H103       26.6344   22.6963   -2.6814 H         1 UNK         0.0767 
    104 H104       28.3207   22.2829   -0.9072 H         1 UNK         0.3013 
    105 H105       26.3354   27.9498    2.5482 H         1 UNK         0.3121 
    106 H106       24.9228   29.5732    4.3972 H         1 UNK         0.0774 
    107 H107       24.5809   29.3273    1.3585 H         1 UNK         0.0815 
    108 H108       23.4028   29.9969    2.4744 H         1 UNK         0.0815 
    109 H109       23.8156   28.2936    2.5673 H         1 UNK         0.0815 
    110 H110       27.2633   30.4013    1.8942 H         1 UNK         0.2987 
    111 H111       26.9710   33.2871    2.1505 H         1 UNK         0.0949 
    112 H112       29.0987   31.5516    0.7986 H         1 UNK         0.0806 
    113 H113       27.6694   32.2178    0.0189 H         1 UNK         0.0806 
    114 H114       28.9294   33.2921    0.6012 H         1 UNK         0.0806 
    115 H115       27.6580   31.5517    4.5792 H         1 UNK         0.3010 
    116 H116       28.6532   31.7632    6.5232 H         1 UNK         0.0829 
    117 H117       29.8262   34.4374    5.5955 H         1 UNK         0.0813 
    118 H118       28.2433   34.2229    6.3428 H         1 UNK         0.0813 
    119 H119       29.7040   33.8641    7.2493 H         1 UNK         0.0813 
    120 H120       29.6932   30.0041    4.9844 H         1 UNK         0.3038 
    121 H121       31.4026   28.6106    4.6053 H         1 UNK         0.0769 
    122 H122       33.1776   28.4363    6.3099 H         1 UNK         0.0811 
    123 H123       32.7845   30.0286    6.9372 H         1 UNK         0.0811 
    124 H124       31.6249   28.7074    7.0825 H         1 UNK         0.0811 
    125 H125       31.3202   30.3721    2.7099 H         1 UNK         0.3204 
    126 H126       33.9182   31.6597    2.1854 H         1 UNK         0.0748 
    127 H127       32.7944   32.4712    0.1471 H         1 UNK         0.0771 
    128 H128       31.4207   31.4115    0.4309 H         1 UNK         0.0771 
    129 H129       31.7495   32.7522    1.5295 H         1 UNK         0.0771 
    130 H130       34.3019   28.9856    2.6414 H         1 UNK         0.2980 
    131 H131       34.3113   27.4163    0.1924 H         1 UNK         0.0545 
    132 H132       36.2290   26.5588   -0.8880 H         1 UNK         0.3459 
    133 H133       37.7349   27.4345   -0.8015 H         1 UNK         0.3459 
    134 H134       35.4061   25.6742    1.6601 H         1 UNK         0.0616 
    135 H135       35.4411   26.8263    2.9761 H         1 UNK         0.0616 
    136 H136       34.4091   25.0018    4.3283 H         1 UNK         0.0634 
    137 H137       33.4234   26.3349    4.8913 H         1 UNK         0.0634 
@<TRIPOS>BOND
     1    1    2 1    
     2    1   72 1    
     3    1   73 1    
     4    1   74 1    
     5    2    3 2    
     6    2    4 am   BACKBONE|DICT|INTERRES
     7    4    5 1    
     8    4   75 1    
     9    5    6 1    
    10    5   35 1    
    11    5   76 1    
    12    6    7 1    
    13    6   77 1    
    14    6   78 1    
    15    7    8 1    
    16    8    9 1    
    17    8   79 1    
    18    8   80 1    
    19    9   10 ar   
    20    9   14 ar   
    21   10   11 ar   
    22   10   81 1    
    23   11   12 ar   
    24   11   71 1    
    25   12   13 ar   
    26   12   82 1    
    27   13   14 ar   
    28   13   15 1    
    29   14   83 1    
    30   15   16 1    
    31   15   84 1    
    32   15   85 1    
    33   16   17 1    
    34   17   18 1    
    35   17   86 1    
    36   17   87 1    
    37   18   19 1    
    38   18   37 1    
    39   18   88 1    
    40   19   20 am   BACKBONE|DICT|INTERRES
    41   19   89 1    
    42   20   21 2    
    43   20   22 1    
    44   22   23 1    
    45   22   24 1    
    46   22   90 1    
    47   23   91 1    
    48   23   92 1    
    49   23   93 1    
    50   24   25 am   BACKBONE|DICT|INTERRES
    51   24   94 1    
    52   25   26 2    
    53   25   27 1    
    54   27   28 1    
    55   27   29 1    
    56   27   95 1    
    57   28   96 1    
    58   28   97 1    
    59   28   98 1    
    60   29   30 am   BACKBONE|DICT|INTERRES
    61   29   99 1    
    62   30   31 2    
    63   30   32 1    
    64   32   33 1    
    65   32   34 1    
    66   32  100 1    
    67   33  101 1    
    68   33  102 1    
    69   33  103 1    
    70   34   35 am   BACKBONE|DICT|INTERRES
    71   34  104 1    
    72   35   36 2    
    73   37   38 2    
    74   37   39 am   BACKBONE|DICT|INTERRES
    75   39   40 1    
    76   39  105 1    
    77   40   41 1    
    78   40   42 1    
    79   40  106 1    
    80   41  107 1    
    81   41  108 1    
    82   41  109 1    
    83   42   43 2    
    84   42   44 am   BACKBONE|DICT|INTERRES
    85   44   45 1    
    86   44  110 1    
    87   45   46 1    
    88   45   47 1    
    89   45  111 1    
    90   46  112 1    
    91   46  113 1    
    92   46  114 1    
    93   47   48 2    
    94   47   49 am   BACKBONE|DICT|INTERRES
    95   49   50 1    
    96   49  115 1    
    97   50   51 1    
    98   50   52 1    
    99   50  116 1    
   100   51  117 1    
   101   51  118 1    
   102   51  119 1    
   103   52   53 2    
   104   52   54 am   BACKBONE|DICT|INTERRES
   105   54   55 1    
   106   54  120 1    
   107   55   56 1    
   108   55   57 1    
   109   55  121 1    
   110   56  122 1    
   111   56  123 1    
   112   56  124 1    
   113   57   58 2    
   114   57   59 am   BACKBONE|DICT|INTERRES
   115   59   60 1    
   116   59  125 1    
   117   60   61 1    
   118   60   62 1    
   119   60  126 1    
   120   61  127 1    
   121   61  128 1    
   122   61  129 1    
   123   62   63 2    
   124   62   64 am   BACKBONE|DICT|INTERRES
   125   64   65 1    
   126   64  130 1    
   127   65   66 1    
   128   65   69 1    
   129   65  131 1    
   130   66   67 am   BACKBONE|DICT|INTERRES
   131   66   68 2    
   132   67  132 1    
   133   67  133 1    
   134   69   70 1    
   135   69  134 1    
   136   69  135 1    
   137   70   71 1    
   138   71  136 1    
   139   71  137 1    
@<TRIPOS>SUBSTRUCTURE
     1 UNK         1 GROUP             0       ****    0 ROOT    
