@<TRIPOS>MOLECULE
3R136
137   139    1
SMALL
USER_CHARGES


@<TRIPOS>ATOM
      1 CA         26.8358   22.7801   -1.5670 C.3       0 UNK        -0.1979 
      2 C          27.7555   23.1374   -0.4101 C.2       0 UNK         0.4864 
      3 O          27.8673   24.3143   -0.0597 O.2       0 UNK        -0.5359 
      4 N          28.4065   22.1314    0.1884 N.am      1 UNK        -0.4318 
      5 CA         29.3004   22.2596    1.3432 C.3       1 UNK         0.0824 
      6 C6         29.9942   20.9090    1.6538 C.3       12 UNK        -0.0944 
      7 S7         31.5635   21.0868    2.5664 S.3       12 UNK        -0.2672 
      8 C8         32.7958   21.0577    1.2211 C.3       12 UNK         0.0333 
      9 C9         33.0070   22.4517    0.6526 C.ar      12 UNK        -0.0807 
     10 C10        33.9631   23.2948    1.2233 C.ar      12 UNK        -0.0894 
     11 C11        34.1153   24.6042    0.7622 C.ar      12 UNK        -0.0804 
     12 C12        33.3211   25.0607   -0.2905 C.ar      12 UNK        -0.0824 
     13 C13        32.3264   24.2438   -0.8406 C.ar      12 UNK        -0.0762 
     14 C14        32.2110   22.9228   -0.3959 C.ar      12 UNK        -0.0782 
     15 C15        31.3255   24.7737   -1.8680 C.3       12 UNK         0.0230 
     16 S16        30.9472   26.5597   -1.7272 S.3       12 UNK        -0.2608 
     17 C17        30.5810   26.7838    0.0527 C.3       12 UNK        -0.0989 
     18 CA         29.3969   27.7567    0.2631 C.3       5 UNK         0.0716 
     19 N          28.1261   27.1488   -0.1395 N.am      5 UNK        -0.4135 
     20 C          27.0292   27.8170   -0.5222 C.2       4 UNK         0.5031 
     21 O          26.9807   29.0433   -0.6342 O.2       4 UNK        -0.5229 
     22 CA         25.7630   26.9873   -0.7541 C.3       4 UNK         0.0329 
     23 CB         25.8274   26.2625   -2.1083 C.3       4 UNK        -0.2001 
     24 N          25.5973   26.0182    0.3315 N.am      4 UNK        -0.4303 
     25 C          24.7786   26.1854    1.3786 C.2       3 UNK         0.5044 
     26 O          24.0239   27.1486    1.5178 O.2       3 UNK        -0.5152 
     27 CA         24.7954   25.0855    2.4523 C.3       3 UNK         0.0319 
     28 CB         24.0678   23.8262    1.9530 C.3       3 UNK        -0.2001 
     29 N          26.1434   24.7228    2.8899 N.am      3 UNK        -0.4354 
     30 C          26.9665   25.4926    3.6139 C.2       2 UNK         0.4964 
     31 O          26.6766   26.6259    3.9924 O.2       2 UNK        -0.5047 
     32 CA         28.3410   24.9098    4.0049 C.3       2 UNK         0.0288 
     33 CB         28.2701   24.2125    5.3774 C.3       2 UNK        -0.2113 
     34 N          28.9550   24.0375    2.9916 N.am      2 UNK        -0.4145 
     35 C          28.5434   22.8379    2.5531 C.2       1 UNK         0.5006 
     36 O          27.5651   22.2326    2.9976 O.2       1 UNK        -0.5103 
     37 C          29.2939   28.3091    1.7036 C.2       5 UNK         0.5055 
     38 O          29.9919   27.8466    2.6110 O.2       5 UNK        -0.5220 
     39 N          28.3883   29.2814    1.8661 N.am      6 UNK        -0.4450 
     40 CA         28.0585   29.9856    3.1041 C.3       6 UNK         0.0367 
     41 CB         26.5260   30.0565    3.2214 C.3       6 UNK        -0.1929 
     42 C          28.6454   31.4099    3.1384 C.2       6 UNK         0.5070 
     43 O          28.5370   32.0759    4.1678 O.2       6 UNK        -0.5237 
     44 N          29.2239   31.8708    2.0229 N.am      7 UNK        -0.4739 
     45 CA         29.7814   33.2081    1.8337 C.3       7 UNK         0.0276 
     46 CB         28.6999   34.1127    1.2152 C.3       7 UNK        -0.1927 
     47 C          31.0092   33.1006    0.9088 C.2       7 UNK         0.5013 
     48 O          31.0605   32.1600    0.1142 O.2       7 UNK        -0.5193 
     49 N          31.9790   34.0306    0.9493 N.am      8 UNK        -0.4253 
     50 CA         32.1010   35.1947    1.8418 C.3       8 UNK         0.0242 
     51 CB         33.1782   36.1393    1.2847 C.3       8 UNK        -0.2000 
     52 C          32.4190   34.8311    3.3039 C.2       8 UNK         0.4948 
     53 O          32.1248   35.6235    4.1987 O.2       8 UNK        -0.5275 
     54 N          32.9552   33.6270    3.5183 N.am      9 UNK        -0.4246 
     55 CA         33.0263   32.9431    4.8027 C.3       9 UNK         0.0261 
     56 CB         34.4868   32.8784    5.2787 C.3       9 UNK        -0.1959 
     57 C          32.4589   31.5409    4.5647 C.2       9 UNK         0.5033 
     58 O          32.6886   30.9771    3.4907 O.2       9 UNK        -0.5390 
     59 N          31.7201   31.0103    5.5442 N.am      10 UNK        -0.4215 
     60 CA         31.1013   29.6892    5.4561 C.3       10 UNK         0.0240 
     61 CB         29.9585   29.5831    6.4797 C.3       10 UNK        -0.1982 
     62 C          32.1352   28.5802    5.6790 C.2       10 UNK         0.4970 
     63 O          32.9167   28.6657    6.6294 O.2       10 UNK        -0.4916 
     64 N          32.0910   27.5500    4.8287 N.am      11 UNK        -0.4279 
     65 CA         32.9355   26.3498    4.9500 C.3       11 UNK         0.1003 
     66 C          32.4225   25.3115    5.9924 C.2       11 UNK         0.5709 
     67 N          31.2775   25.5141    6.6339 N.am      11 UNK        -0.7358 
     68 O          33.0887   24.3095    6.2407 O.2       11 UNK        -0.4999 
     69 C69        33.1961   25.6959    3.5712 C.3       12 UNK        -0.0954 
     70 S70        34.1467   26.7829    2.4531 S.3       12 UNK        -0.2268 
     71 C71        35.0679   25.5613    1.4606 C.3       12 UNK         0.0203 
     72 H72        25.8358   23.1741   -1.3886 H         1 UNK         0.0888 
     73 H73        27.2147   23.2119   -2.4927 H         1 UNK         0.0888 
     74 H74        26.7540   21.7022   -1.7047 H         1 UNK         0.0888 
     75 H75        28.2397   21.1870   -0.1277 H         1 UNK         0.3017 
     76 H76        30.0596   22.9867    1.0598 H         1 UNK         0.0873 
     77 H77        30.2052   20.3721    0.7278 H         1 UNK         0.0745 
     78 H78        29.3335   20.2496    2.2203 H         1 UNK         0.0745 
     79 H79        32.4989   20.3593    0.4375 H         1 UNK         0.0705 
     80 H80        33.7374   20.6772    1.6202 H         1 UNK         0.0705 
     81 H81        34.5583   22.9444    2.0557 H         1 UNK         0.1334 
     82 H82        33.4350   26.0823   -0.6249 H         1 UNK         0.1417 
     83 H83        31.4556   22.2769   -0.8229 H         1 UNK         0.1562 
     84 H84        30.3837   24.2293   -1.7827 H         1 UNK         0.0748 
     85 H85        31.7099   24.5744   -2.8689 H         1 UNK         0.0748 
     86 H86        31.4861   27.1714    0.5250 H         1 UNK         0.0940 
     87 H87        30.3776   25.8207    0.5235 H         1 UNK         0.0940 
     88 H88        29.5786   28.6258   -0.3738 H         1 UNK         0.0703 
     89 H89        28.0808   26.1333   -0.0829 H         1 UNK         0.3081 
     90 H90        24.9111   27.6701   -0.7824 H         1 UNK         0.0719 
     91 H91        25.8581   26.9810   -2.9284 H         1 UNK         0.0809 
     92 H92        26.7155   25.6371   -2.1968 H         1 UNK         0.0809 
     93 H93        24.9525   25.6311   -2.2633 H         1 UNK         0.0809 
     94 H94        26.2334   25.2265    0.3279 H         1 UNK         0.2990 
     95 H95        24.2547   25.4649    3.3221 H         1 UNK         0.0690 
     96 H96        23.9841   23.0791    2.7426 H         1 UNK         0.0788 
     97 H97        24.5845   23.3647    1.1106 H         1 UNK         0.0788 
     98 H98        23.0548   24.0643    1.6251 H         1 UNK         0.0788 
     99 H99        26.4582   23.7789    2.6881 H         1 UNK         0.2993 
    100 H100       29.0173   25.7604    4.1051 H         1 UNK         0.0949 
    101 H101       27.5400   23.4027    5.3874 H         1 UNK         0.0767 
    102 H102       29.2355   23.7934    5.6602 H         1 UNK         0.0767 
    103 H103       27.9792   24.9189    6.1559 H         1 UNK         0.0767 
    104 H104       29.7450   24.4506    2.5173 H         1 UNK         0.3013 
    105 H105       27.8392   29.5334    1.0479 H         1 UNK         0.3121 
    106 H106       28.4396   29.4295    3.9613 H         1 UNK         0.0774 
    107 H107       26.2272   30.5076    4.1685 H         1 UNK         0.0815 
    108 H108       26.0862   30.6534    2.4213 H         1 UNK         0.0815 
    109 H109       26.0751   29.0652    3.1802 H         1 UNK         0.0815 
    110 H110       29.3605   31.2466    1.2384 H         1 UNK         0.2987 
    111 H111       30.0741   33.6054    2.8042 H         1 UNK         0.0949 
    112 H112       27.8324   34.1953    1.8705 H         1 UNK         0.0806 
    113 H113       29.0702   35.1232    1.0436 H         1 UNK         0.0806 
    114 H114       28.3558   33.7269    0.2547 H         1 UNK         0.0806 
    115 H115       32.7420   33.9159    0.2979 H         1 UNK         0.3010 
    116 H116       31.1537   35.7354    1.8404 H         1 UNK         0.0829 
    117 H117       32.9296   36.4765    0.2781 H         1 UNK         0.0813 
    118 H118       33.2761   37.0306    1.9065 H         1 UNK         0.0813 
    119 H119       34.1575   35.6602    1.2472 H         1 UNK         0.0813 
    120 H120       33.1152   33.0183    2.7247 H         1 UNK         0.3038 
    121 H121       32.4170   33.4569    5.5499 H         1 UNK         0.0769 
    122 H122       34.5627   32.3604    6.2356 H         1 UNK         0.0811 
    123 H123       34.9019   33.8772    5.4148 H         1 UNK         0.0811 
    124 H124       35.1204   32.3466    4.5675 H         1 UNK         0.0811 
    125 H125       31.6084   31.5113    6.4139 H         1 UNK         0.3204 
    126 H126       30.6824   29.5793    4.4558 H         1 UNK         0.0748 
    127 H127       29.4423   28.6264    6.3899 H         1 UNK         0.0771 
    128 H128       30.3236   29.6634    7.5046 H         1 UNK         0.0771 
    129 H129       29.2145   30.3653    6.3273 H         1 UNK         0.0771 
    130 H130       31.4272   27.5635    4.0602 H         1 UNK         0.2980 
    131 H131       33.9077   26.6662    5.3329 H         1 UNK         0.0545 
    132 H132       30.9725   24.8388    7.3163 H         1 UNK         0.3459 
    133 H133       30.7315   26.3402    6.4592 H         1 UNK         0.3459 
    134 H134       33.7578   24.7688    3.6961 H         1 UNK         0.0616 
    135 H135       32.2569   25.4254    3.0855 H         1 UNK         0.0616 
    136 H136       35.6727   26.0847    0.7189 H         1 UNK         0.0634 
    137 H137       35.7632   25.0216    2.1053 H         1 UNK         0.0634 
@<TRIPOS>BOND
     1    1    2 1    
     2    1   72 1    
     3    1   73 1    
     4    1   74 1    
     5    2    3 2    
     6    2    4 am   BACKBONE|DICT|INTERRES
     7    4    5 1    
     8    4   75 1    
     9    5    6 1    
    10    5   35 1    
    11    5   76 1    
    12    6    7 1    
    13    6   77 1    
    14    6   78 1    
    15    7    8 1    
    16    8    9 1    
    17    8   79 1    
    18    8   80 1    
    19    9   10 ar   
    20    9   14 ar   
    21   10   11 ar   
    22   10   81 1    
    23   11   12 ar   
    24   11   71 1    
    25   12   13 ar   
    26   12   82 1    
    27   13   14 ar   
    28   13   15 1    
    29   14   83 1    
    30   15   16 1    
    31   15   84 1    
    32   15   85 1    
    33   16   17 1    
    34   17   18 1    
    35   17   86 1    
    36   17   87 1    
    37   18   19 1    
    38   18   37 1    
    39   18   88 1    
    40   19   20 am   BACKBONE|DICT|INTERRES
    41   19   89 1    
    42   20   21 2    
    43   20   22 1    
    44   22   23 1    
    45   22   24 1    
    46   22   90 1    
    47   23   91 1    
    48   23   92 1    
    49   23   93 1    
    50   24   25 am   BACKBONE|DICT|INTERRES
    51   24   94 1    
    52   25   26 2    
    53   25   27 1    
    54   27   28 1    
    55   27   29 1    
    56   27   95 1    
    57   28   96 1    
    58   28   97 1    
    59   28   98 1    
    60   29   30 am   BACKBONE|DICT|INTERRES
    61   29   99 1    
    62   30   31 2    
    63   30   32 1    
    64   32   33 1    
    65   32   34 1    
    66   32  100 1    
    67   33  101 1    
    68   33  102 1    
    69   33  103 1    
    70   34   35 am   BACKBONE|DICT|INTERRES
    71   34  104 1    
    72   35   36 2    
    73   37   38 2    
    74   37   39 am   BACKBONE|DICT|INTERRES
    75   39   40 1    
    76   39  105 1    
    77   40   41 1    
    78   40   42 1    
    79   40  106 1    
    80   41  107 1    
    81   41  108 1    
    82   41  109 1    
    83   42   43 2    
    84   42   44 am   BACKBONE|DICT|INTERRES
    85   44   45 1    
    86   44  110 1    
    87   45   46 1    
    88   45   47 1    
    89   45  111 1    
    90   46  112 1    
    91   46  113 1    
    92   46  114 1    
    93   47   48 2    
    94   47   49 am   BACKBONE|DICT|INTERRES
    95   49   50 1    
    96   49  115 1    
    97   50   51 1    
    98   50   52 1    
    99   50  116 1    
   100   51  117 1    
   101   51  118 1    
   102   51  119 1    
   103   52   53 2    
   104   52   54 am   BACKBONE|DICT|INTERRES
   105   54   55 1    
   106   54  120 1    
   107   55   56 1    
   108   55   57 1    
   109   55  121 1    
   110   56  122 1    
   111   56  123 1    
   112   56  124 1    
   113   57   58 2    
   114   57   59 am   BACKBONE|DICT|INTERRES
   115   59   60 1    
   116   59  125 1    
   117   60   61 1    
   118   60   62 1    
   119   60  126 1    
   120   61  127 1    
   121   61  128 1    
   122   61  129 1    
   123   62   63 2    
   124   62   64 am   BACKBONE|DICT|INTERRES
   125   64   65 1    
   126   64  130 1    
   127   65   66 1    
   128   65   69 1    
   129   65  131 1    
   130   66   67 am   BACKBONE|DICT|INTERRES
   131   66   68 2    
   132   67  132 1    
   133   67  133 1    
   134   69   70 1    
   135   69  134 1    
   136   69  135 1    
   137   70   71 1    
   138   71  136 1    
   139   71  137 1    
@<TRIPOS>SUBSTRUCTURE
     1 UNK         1 GROUP             0       ****    0 ROOT    
