@<TRIPOS>MOLECULE
3R136
137   139    1
SMALL
USER_CHARGES


@<TRIPOS>ATOM
      1 CA         30.2815   19.3367   -2.5864 C.3       0 UNK        -0.1979 
      2 C          30.2997   20.7879   -2.1283 C.2       0 UNK         0.4864 
      3 O          31.1792   21.5471   -2.5387 O.2       0 UNK        -0.5359 
      4 N          29.3418   21.1753   -1.2759 N.am      1 UNK        -0.4318 
      5 CA         29.1635   22.5462   -0.7867 C.3       1 UNK         0.0824 
      6 C6         28.3077   22.5686    0.5066 C.3       12 UNK        -0.0944 
      7 S7         28.7594   23.9560    1.5976 S.3       12 UNK        -0.2672 
      8 C8         29.9251   23.1193    2.7170 C.3       12 UNK         0.0333 
      9 C9         30.5643   24.1094    3.6751 C.ar      12 UNK        -0.0807 
     10 C10        31.7262   24.7922    3.3052 C.ar      12 UNK        -0.0894 
     11 C11        32.2956   25.7385    4.1622 C.ar      12 UNK        -0.0804 
     12 C12        31.7049   25.9837    5.4052 C.ar      12 UNK        -0.0824 
     13 C13        30.5563   25.2899    5.7955 C.ar      12 UNK        -0.0762 
     14 C14        29.9898   24.3528    4.9256 C.ar      12 UNK        -0.0782 
     15 C15        29.9239   25.5559    7.1534 C.3       12 UNK         0.0230 
     16 S16        28.2665   26.2921    6.9992 S.3       12 UNK        -0.2608 
     17 C17        28.6397   27.9390    6.3010 C.3       12 UNK        -0.0989 
     18 CA         28.5580   27.9998    4.7521 C.3       5 UNK         0.0716 
     19 N          27.3660   27.3255    4.2282 N.am      5 UNK        -0.4135 
     20 C          27.0437   27.1555    2.9395 C.2       4 UNK         0.5031 
     21 O          27.6537   27.6767    1.9996 O.2       4 UNK        -0.5229 
     22 CA         25.8567   26.2038    2.6851 C.3       4 UNK         0.0329 
     23 CB         24.6052   26.5774    3.5123 C.3       4 UNK        -0.2001 
     24 N          25.5366   26.0591    1.2603 N.am      4 UNK        -0.4303 
     25 C          25.0060   26.9805    0.4435 C.2       3 UNK         0.5044 
     26 O          24.6104   28.0907    0.8039 O.2       3 UNK        -0.5152 
     27 CA         24.9929   26.6000   -1.0430 C.3       3 UNK         0.0319 
     28 CB         24.2767   27.6496   -1.9245 C.3       3 UNK        -0.2001 
     29 N          26.3861   26.3977   -1.4432 N.am      3 UNK        -0.4354 
     30 C          26.8348   25.9685   -2.6280 C.2       2 UNK         0.4964 
     31 O          26.1172   25.7017   -3.5922 O.2       2 UNK        -0.5047 
     32 CA         28.3576   25.7794   -2.7360 C.3       2 UNK         0.0288 
     33 CB         29.1105   27.1011   -2.4954 C.3       2 UNK        -0.2113 
     34 N          28.8538   24.7568   -1.8103 N.am      2 UNK        -0.4145 
     35 C          28.5621   23.4500   -1.8851 C.2       1 UNK         0.5006 
     36 O          27.8414   22.9553   -2.7568 O.2       1 UNK        -0.5103 
     37 C          28.7126   29.4573    4.2797 C.2       5 UNK         0.5055 
     38 O          29.8411   29.9035    4.0742 O.2       5 UNK        -0.5220 
     39 N          27.5878   30.1705    4.1230 N.am      6 UNK        -0.4450 
     40 CA         27.5431   31.5660    3.6826 C.3       6 UNK         0.0367 
     41 CB         26.1187   32.1187    3.8530 C.3       6 UNK        -0.1929 
     42 C          28.0308   31.7461    2.2370 C.2       6 UNK         0.5070 
     43 O          28.8608   32.6185    1.9826 O.2       6 UNK        -0.5237 
     44 N          27.5385   30.8974    1.3237 N.am      7 UNK        -0.4739 
     45 CA         27.9439   30.8892   -0.0853 C.3       7 UNK         0.0276 
     46 CB         26.9318   30.0819   -0.9056 C.3       7 UNK        -0.1927 
     47 C          29.3590   30.3265   -0.2797 C.2       7 UNK         0.5013 
     48 O          30.0792   30.7878   -1.1647 O.2       7 UNK        -0.5193 
     49 N          29.7396   29.3650    0.5725 N.am      8 UNK        -0.4253 
     50 CA         31.0807   28.7812    0.6311 C.3       8 UNK         0.0242 
     51 CB         30.9835   27.4107    1.3125 C.3       8 UNK        -0.2000 
     52 C          32.1251   29.6837    1.3258 C.2       8 UNK         0.4948 
     53 O          33.2958   29.3048    1.3749 O.2       8 UNK        -0.5275 
     54 N          31.6968   30.8505    1.8335 N.am      9 UNK        -0.4246 
     55 CA         32.4909   31.9101    2.4636 C.3       9 UNK         0.0261 
     56 CB         33.4699   32.5394    1.4490 C.3       9 UNK        -0.1959 
     57 C          33.1744   31.4785    3.7749 C.2       9 UNK         0.5033 
     58 O          34.3245   31.8514    4.0172 O.2       9 UNK        -0.5390 
     59 N          32.4511   30.7127    4.6048 N.am      10 UNK        -0.4215 
     60 CA         32.7702   30.2513    5.9664 C.3       10 UNK         0.0240 
     61 CB         32.9141   31.4432    6.9322 C.3       10 UNK        -0.1982 
     62 C          33.9662   29.2880    6.1057 C.2       10 UNK         0.4970 
     63 O          33.9025   28.4092    6.9654 O.2       10 UNK        -0.4916 
     64 N          34.9994   29.4561    5.2704 N.am      11 UNK        -0.4279 
     65 CA         36.2392   28.6679    5.1713 C.3       11 UNK         0.1003 
     66 C          36.9629   28.4022    6.5279 C.2       11 UNK         0.5709 
     67 N          37.5958   27.2513    6.7159 N.am      11 UNK        -0.7358 
     68 O          37.0168   29.2748    7.3932 O.2       11 UNK        -0.4999 
     69 C69        36.1143   27.4553    4.1973 C.3       12 UNK        -0.0954 
     70 S70        34.9817   26.1264    4.7300 S.3       12 UNK        -0.2268 
     71 C71        33.5186   26.5320    3.7300 C.3       12 UNK         0.0203 
     72 H72        29.4623   18.7768   -2.1357 H         1 UNK         0.0888 
     73 H73        30.1703   19.2871   -3.6693 H         1 UNK         0.0888 
     74 H74        31.2162   18.8460   -2.3164 H         1 UNK         0.0888 
     75 H75        28.6256   20.5165   -1.0059 H         1 UNK         0.3017 
     76 H76        30.1615   22.9248   -0.5523 H         1 UNK         0.0873 
     77 H77        27.2395   22.6186    0.2849 H         1 UNK         0.0745 
     78 H78        28.4403   21.6435    1.0704 H         1 UNK         0.0745 
     79 H79        30.6967   22.6171    2.1312 H         1 UNK         0.0705 
     80 H80        29.4010   22.3401    3.2728 H         1 UNK         0.0705 
     81 H81        32.1697   24.6055    2.3368 H         1 UNK         0.1334 
     82 H82        32.1434   26.7161    6.0679 H         1 UNK         0.1417 
     83 H83        29.0911   23.8265    5.2175 H         1 UNK         0.1562 
     84 H84        30.5542   26.2058    7.7627 H         1 UNK         0.0748 
     85 H85        29.8413   24.6136    7.6967 H         1 UNK         0.0748 
     86 H86        29.6266   28.2582    6.6422 H         1 UNK         0.0940 
     87 H87        27.9303   28.6386    6.7483 H         1 UNK         0.0940 
     88 H88        29.4111   27.4523    4.3494 H         1 UNK         0.0703 
     89 H89        26.8204   26.8394    4.9250 H         1 UNK         0.3081 
     90 H90        26.1853   25.2154    3.0102 H         1 UNK         0.0719 
     91 H91        24.3121   27.6173    3.3639 H         1 UNK         0.0809 
     92 H92        23.7539   25.9511    3.2453 H         1 UNK         0.0809 
     93 H93        24.7751   26.4387    4.5802 H         1 UNK         0.0809 
     94 H94        25.8533   25.1950    0.8437 H         1 UNK         0.2990 
     95 H95        24.4629   25.6501   -1.1358 H         1 UNK         0.0690 
     96 H96        24.1508   27.3003   -2.9487 H         1 UNK         0.0788 
     97 H97        24.8204   28.5921   -1.9598 H         1 UNK         0.0788 
     98 H98        23.2779   27.8633   -1.5419 H         1 UNK         0.0788 
     99 H99        27.0643   26.5832   -0.7155 H         1 UNK         0.2993 
    100 H100       28.5752   25.4470   -3.7536 H         1 UNK         0.0949 
    101 H101       30.1749   26.9928   -2.7051 H         1 UNK         0.0767 
    102 H102       28.7333   27.8917   -3.1458 H         1 UNK         0.0767 
    103 H103       29.0100   27.4489   -1.4674 H         1 UNK         0.0767 
    104 H104       29.4349   25.0758   -1.0487 H         1 UNK         0.3013 
    105 H105       26.7044   29.7189    4.3094 H         1 UNK         0.3121 
    106 H106       28.2096   32.1411    4.3294 H         1 UNK         0.0774 
    107 H107       26.0664   33.1621    3.5388 H         1 UNK         0.0815 
    108 H108       25.3921   31.5632    3.2587 H         1 UNK         0.0815 
    109 H109       25.8004   32.0804    4.8949 H         1 UNK         0.0815 
    110 H110       26.8940   30.1763    1.6192 H         1 UNK         0.2987 
    111 H111       27.9407   31.9181   -0.4525 H         1 UNK         0.0949 
    112 H112       26.9052   29.0421   -0.5830 H         1 UNK         0.0806 
    113 H113       25.9260   30.4907   -0.8088 H         1 UNK         0.0806 
    114 H114       27.1883   30.0895   -1.9658 H         1 UNK         0.0806 
    115 H115       29.0581   29.0079    1.2355 H         1 UNK         0.3010 
    116 H116       31.4268   28.6226   -0.3925 H         1 UNK         0.0829 
    117 H117       30.2208   26.7829    0.8520 H         1 UNK         0.0813 
    118 H118       31.9298   26.8772    1.2336 H         1 UNK         0.0813 
    119 H119       30.7406   27.5068    2.3706 H         1 UNK         0.0813 
    120 H120       30.7040   31.0382    1.7807 H         1 UNK         0.3038 
    121 H121       31.7759   32.6844    2.7459 H         1 UNK         0.0769 
    122 H122       33.9597   33.4178    1.8710 H         1 UNK         0.0811 
    123 H123       32.9519   32.8615    0.5457 H         1 UNK         0.0811 
    124 H124       34.2540   31.8406    1.1560 H         1 UNK         0.0811 
    125 H125       31.5207   30.4376    4.2835 H         1 UNK         0.3204 
    126 H126       31.8918   29.6853    6.2810 H         1 UNK         0.0748 
    127 H127       33.0523   31.0989    7.9581 H         1 UNK         0.0771 
    128 H128       33.7723   32.0678    6.6825 H         1 UNK         0.0771 
    129 H129       32.0246   32.0732    6.9192 H         1 UNK         0.0771 
    130 H130       34.9479   30.2703    4.6624 H         1 UNK         0.2980 
    131 H131       36.9251   29.3546    4.6744 H         1 UNK         0.0545 
    132 H132       37.5485   26.5224    6.0213 H         1 UNK         0.3459 
    133 H133       38.0850   27.0933    7.5826 H         1 UNK         0.3459 
    134 H134       35.7935   27.8157    3.2184 H         1 UNK         0.0616 
    135 H135       37.0951   27.0113    4.0209 H         1 UNK         0.0616 
    136 H136       33.7543   26.3470    2.6812 H         1 UNK         0.0634 
    137 H137       33.2944   27.5961    3.8097 H         1 UNK         0.0634 
@<TRIPOS>BOND
     1    1    2 1    
     2    1   72 1    
     3    1   73 1    
     4    1   74 1    
     5    2    3 2    
     6    2    4 am   BACKBONE|DICT|INTERRES
     7    4    5 1    
     8    4   75 1    
     9    5    6 1    
    10    5   35 1    
    11    5   76 1    
    12    6    7 1    
    13    6   77 1    
    14    6   78 1    
    15    7    8 1    
    16    8    9 1    
    17    8   79 1    
    18    8   80 1    
    19    9   10 ar   
    20    9   14 ar   
    21   10   11 ar   
    22   10   81 1    
    23   11   12 ar   
    24   11   71 1    
    25   12   13 ar   
    26   12   82 1    
    27   13   14 ar   
    28   13   15 1    
    29   14   83 1    
    30   15   16 1    
    31   15   84 1    
    32   15   85 1    
    33   16   17 1    
    34   17   18 1    
    35   17   86 1    
    36   17   87 1    
    37   18   19 1    
    38   18   37 1    
    39   18   88 1    
    40   19   20 am   BACKBONE|DICT|INTERRES
    41   19   89 1    
    42   20   21 2    
    43   20   22 1    
    44   22   23 1    
    45   22   24 1    
    46   22   90 1    
    47   23   91 1    
    48   23   92 1    
    49   23   93 1    
    50   24   25 am   BACKBONE|DICT|INTERRES
    51   24   94 1    
    52   25   26 2    
    53   25   27 1    
    54   27   28 1    
    55   27   29 1    
    56   27   95 1    
    57   28   96 1    
    58   28   97 1    
    59   28   98 1    
    60   29   30 am   BACKBONE|DICT|INTERRES
    61   29   99 1    
    62   30   31 2    
    63   30   32 1    
    64   32   33 1    
    65   32   34 1    
    66   32  100 1    
    67   33  101 1    
    68   33  102 1    
    69   33  103 1    
    70   34   35 am   BACKBONE|DICT|INTERRES
    71   34  104 1    
    72   35   36 2    
    73   37   38 2    
    74   37   39 am   BACKBONE|DICT|INTERRES
    75   39   40 1    
    76   39  105 1    
    77   40   41 1    
    78   40   42 1    
    79   40  106 1    
    80   41  107 1    
    81   41  108 1    
    82   41  109 1    
    83   42   43 2    
    84   42   44 am   BACKBONE|DICT|INTERRES
    85   44   45 1    
    86   44  110 1    
    87   45   46 1    
    88   45   47 1    
    89   45  111 1    
    90   46  112 1    
    91   46  113 1    
    92   46  114 1    
    93   47   48 2    
    94   47   49 am   BACKBONE|DICT|INTERRES
    95   49   50 1    
    96   49  115 1    
    97   50   51 1    
    98   50   52 1    
    99   50  116 1    
   100   51  117 1    
   101   51  118 1    
   102   51  119 1    
   103   52   53 2    
   104   52   54 am   BACKBONE|DICT|INTERRES
   105   54   55 1    
   106   54  120 1    
   107   55   56 1    
   108   55   57 1    
   109   55  121 1    
   110   56  122 1    
   111   56  123 1    
   112   56  124 1    
   113   57   58 2    
   114   57   59 am   BACKBONE|DICT|INTERRES
   115   59   60 1    
   116   59  125 1    
   117   60   61 1    
   118   60   62 1    
   119   60  126 1    
   120   61  127 1    
   121   61  128 1    
   122   61  129 1    
   123   62   63 2    
   124   62   64 am   BACKBONE|DICT|INTERRES
   125   64   65 1    
   126   64  130 1    
   127   65   66 1    
   128   65   69 1    
   129   65  131 1    
   130   66   67 am   BACKBONE|DICT|INTERRES
   131   66   68 2    
   132   67  132 1    
   133   67  133 1    
   134   69   70 1    
   135   69  134 1    
   136   69  135 1    
   137   70   71 1    
   138   71  136 1    
   139   71  137 1    
@<TRIPOS>SUBSTRUCTURE
     1 UNK         1 GROUP             0       ****    0 ROOT    
