@<TRIPOS>MOLECULE
3R136
137   139    1
SMALL
USER_CHARGES


@<TRIPOS>ATOM
      1 CA         36.0335   25.1297   -1.1396 C.3       0 UNK        -0.1979 
      2 C          34.7461   25.2891   -0.3458 C.2       0 UNK         0.4864 
      3 O          34.7106   26.0670    0.6099 O.2       0 UNK        -0.5359 
      4 N          33.6915   24.5539   -0.7237 N.am      1 UNK        -0.4318 
      5 CA         32.3761   24.6323   -0.0856 C.3       1 UNK         0.0824 
      6 C6         31.4848   23.4010   -0.3818 C.3       12 UNK        -0.0944 
      7 S7         32.1219   21.8226    0.2778 S.3       12 UNK        -0.2672 
      8 C8         32.4331   22.1673    2.0464 C.3       12 UNK         0.0333 
      9 C9         31.2948   22.9049    2.7471 C.ar      12 UNK        -0.0807 
     10 C10        31.5409   24.1314    3.3727 C.ar      12 UNK        -0.0894 
     11 C11        30.5163   24.8138    4.0316 C.ar      12 UNK        -0.0804 
     12 C12        29.2378   24.2526    4.0845 C.ar      12 UNK        -0.0824 
     13 C13        28.9768   23.0224    3.4715 C.ar      12 UNK        -0.0762 
     14 C14        30.0091   22.3559    2.8007 C.ar      12 UNK        -0.0782 
     15 C15        27.5957   22.3869    3.5692 C.3       12 UNK         0.0230 
     16 S16        26.4178   23.0858    2.3670 S.3       12 UNK        -0.2608 
     17 C17        25.8076   24.5699    3.2415 C.3       12 UNK        -0.0989 
     18 CA         26.1775   25.8853    2.5004 C.3       5 UNK         0.0716 
     19 N          25.6005   25.9689    1.1520 N.am      5 UNK        -0.4135 
     20 C          24.2985   26.0796    0.8368 C.2       4 UNK         0.5031 
     21 O          23.3879   25.9752    1.6600 O.2       4 UNK        -0.5229 
     22 CA         23.9463   26.4142   -0.6310 C.3       4 UNK         0.0329 
     23 CB         22.7380   27.3704   -0.7262 C.3       4 UNK        -0.2001 
     24 N          25.0683   26.9417   -1.4219 N.am      4 UNK        -0.4303 
     25 C          25.8176   28.0220   -1.1566 C.2       3 UNK         0.5044 
     26 O          25.6570   28.7697   -0.1858 O.2       3 UNK        -0.5152 
     27 CA         27.0231   28.2387   -2.0842 C.3       3 UNK         0.0319 
     28 CB         26.8789   29.5483   -2.8747 C.3       3 UNK        -0.2001 
     29 N          28.2711   28.2577   -1.3181 N.am      3 UNK        -0.4354 
     30 C          28.7118   27.2570   -0.5420 C.2       2 UNK         0.4964 
     31 O          28.1492   26.1640   -0.4332 O.2       2 UNK        -0.5047 
     32 CA         29.9429   27.5624    0.3186 C.3       2 UNK         0.0288 
     33 CB         29.5060   28.0291    1.7133 C.3       2 UNK        -0.2113 
     34 N          30.7946   26.3893    0.4737 N.am      2 UNK        -0.4145 
     35 C          31.6360   25.9286   -0.4579 C.2       1 UNK         0.5006 
     36 O          31.8167   26.4621   -1.5561 O.2       1 UNK        -0.5103 
     37 C          25.8951   27.1525    3.3533 C.2       5 UNK         0.5055 
     38 O          26.0053   27.0857    4.5789 O.2       5 UNK        -0.5220 
     39 N          25.5281   28.2747    2.7125 N.am      6 UNK        -0.4450 
     40 CA         25.0437   29.4931    3.3677 C.3       6 UNK         0.0367 
     41 CB         23.6689   29.8505    2.7782 C.3       6 UNK        -0.1929 
     42 C          26.0055   30.6799    3.2108 C.2       6 UNK         0.5070 
     43 O          26.0399   31.5398    4.0923 O.2       6 UNK        -0.5237 
     44 N          26.7475   30.7299    2.0967 N.am      7 UNK        -0.4739 
     45 CA         27.7318   31.7759    1.7968 C.3       7 UNK         0.0276 
     46 CB         28.0629   31.7089    0.2959 C.3       7 UNK        -0.1927 
     47 C          29.0139   31.6682    2.6491 C.2       7 UNK         0.5013 
     48 O          29.2000   30.6972    3.3856 O.2       7 UNK        -0.5193 
     49 N          29.9014   32.6605    2.5067 N.am      8 UNK        -0.4253 
     50 CA         31.2645   32.6125    3.0371 C.3       8 UNK         0.0242 
     51 CB         31.8064   34.0438    3.1862 C.3       8 UNK        -0.2000 
     52 C          32.1561   31.7875    2.0943 C.2       8 UNK         0.4948 
     53 O          32.1127   32.0060    0.8811 O.2       8 UNK        -0.5275 
     54 N          32.9530   30.8803    2.6673 N.am      9 UNK        -0.4246 
     55 CA         33.9178   30.0116    1.9907 C.3       9 UNK         0.0261 
     56 CB         33.2125   28.9842    1.0805 C.3       9 UNK        -0.1959 
     57 C          34.8016   29.3809    3.0794 C.2       9 UNK         0.5033 
     58 O          35.1525   30.0885    4.0271 O.2       9 UNK        -0.5390 
     59 N          35.1155   28.0771    2.9811 N.am      10 UNK        -0.4215 
     60 CA         35.9256   27.3269    3.9570 C.3       10 UNK         0.0240 
     61 CB         36.0950   25.8755    3.4789 C.3       10 UNK        -0.1982 
     62 C          35.4044   27.3477    5.4097 C.2       10 UNK         0.4970 
     63 O          36.2020   27.1706    6.3315 O.2       10 UNK        -0.4916 
     64 N          34.0980   27.5811    5.5912 N.am      11 UNK        -0.4279 
     65 CA         33.4598   27.8152    6.8967 C.3       11 UNK         0.1003 
     66 C          33.7962   29.1937    7.5416 C.2       11 UNK         0.5709 
     67 N          34.4167   30.1369    6.8412 N.am      11 UNK        -0.7358 
     68 O          33.4927   29.4088    8.7128 O.2       11 UNK        -0.4999 
     69 C69        31.9248   27.5959    6.8339 C.3       12 UNK        -0.0954 
     70 S70        31.4841   25.8905    6.3668 S.3       12 UNK        -0.2268 
     71 C71        30.8037   26.1463    4.7025 C.3       12 UNK         0.0203 
     72 H72        36.8398   24.8056   -0.4822 H         1 UNK         0.0888 
     73 H73        35.9313   24.3966   -1.9395 H         1 UNK         0.0888 
     74 H74        36.3180   26.0825   -1.5849 H         1 UNK         0.0888 
     75 H75        33.7614   23.9416   -1.5233 H         1 UNK         0.3017 
     76 H76        32.5585   24.6848    0.9849 H         1 UNK         0.0873 
     77 H77        30.4836   23.5385    0.0328 H         1 UNK         0.0745 
     78 H78        31.3444   23.2861   -1.4582 H         1 UNK         0.0745 
     79 H79        32.6047   21.2201    2.5593 H         1 UNK         0.0705 
     80 H80        33.3670   22.7255    2.1305 H         1 UNK         0.0705 
     81 H81        32.5359   24.5558    3.3593 H         1 UNK         0.1334 
     82 H82        28.4529   24.7695    4.6181 H         1 UNK         0.1417 
     83 H83        29.8180   21.4024    2.3270 H         1 UNK         0.1562 
     84 H84        27.2056   22.4858    4.5832 H         1 UNK         0.0748 
     85 H85        27.6691   21.3136    3.3870 H         1 UNK         0.0748 
     86 H86        26.2009   24.5679    4.2581 H         1 UNK         0.0940 
     87 H87        24.7263   24.4822    3.3551 H         1 UNK         0.0940 
     88 H88        27.2569   25.8754    2.3527 H         1 UNK         0.0703 
     89 H89        26.2850   26.0318    0.4051 H         1 UNK         0.3081 
     90 H90        23.6617   25.4685   -1.0946 H         1 UNK         0.0719 
     91 H91        22.9316   28.3171   -0.2207 H         1 UNK         0.0809 
     92 H92        22.4859   27.5898   -1.7636 H         1 UNK         0.0809 
     93 H93        21.8510   26.9326   -0.2665 H         1 UNK         0.0809 
     94 H94        25.3263   26.3794   -2.2218 H         1 UNK         0.2990 
     95 H95        27.0854   27.4134   -2.7967 H         1 UNK         0.0690 
     96 H96        27.7207   29.7011   -3.5503 H         1 UNK         0.0788 
     97 H97        26.8134   30.4149   -2.2170 H         1 UNK         0.0788 
     98 H98        25.9741   29.5362   -3.4839 H         1 UNK         0.0788 
     99 H99        28.7891   29.1231   -1.3377 H         1 UNK         0.2993 
    100 H100       30.5135   28.3593   -0.1618 H         1 UNK         0.0949 
    101 H101       29.1078   27.2122    2.3130 H         1 UNK         0.0767 
    102 H102       30.3371   28.4687    2.2642 H         1 UNK         0.0767 
    103 H103       28.7260   28.7859    1.6462 H         1 UNK         0.0767 
    104 H104       30.6527   25.8454    1.3121 H         1 UNK         0.3013 
    105 H105       25.4934   28.2711    1.6967 H         1 UNK         0.3121 
    106 H106       24.9138   29.3232    4.4386 H         1 UNK         0.0774 
    107 H107       23.2586   30.7425    3.2535 H         1 UNK         0.0815 
    108 H108       23.7282   30.0478    1.7068 H         1 UNK         0.0815 
    109 H109       22.9522   29.0429    2.9293 H         1 UNK         0.0815 
    110 H110       26.6291   30.0024    1.4040 H         1 UNK         0.2987 
    111 H111       27.2739   32.7446    2.0096 H         1 UNK         0.0949 
    112 H112       28.5601   30.7749    0.0370 H         1 UNK         0.0806 
    113 H113       27.1600   31.7921   -0.3087 H         1 UNK         0.0806 
    114 H114       28.7237   32.5220   -0.0069 H         1 UNK         0.0806 
    115 H115       29.7021   33.4046    1.8539 H         1 UNK         0.3010 
    116 H116       31.2502   32.1469    4.0254 H         1 UNK         0.0829 
    117 H117       31.1862   34.6346    3.8606 H         1 UNK         0.0813 
    118 H118       32.8165   34.0364    3.5982 H         1 UNK         0.0813 
    119 H119       31.8497   34.5631    2.2278 H         1 UNK         0.0813 
    120 H120       32.9862   30.8231    3.6770 H         1 UNK         0.3038 
    121 H121       34.5638   30.6405    1.3751 H         1 UNK         0.0769 
    122 H122       32.6652   28.2366    1.6541 H         1 UNK         0.0811 
    123 H123       33.9347   28.4683    0.4495 H         1 UNK         0.0811 
    124 H124       32.5106   29.4615    0.3990 H         1 UNK         0.0811 
    125 H125       34.8146   27.5566    2.1620 H         1 UNK         0.3204 
    126 H126       36.9128   27.7930    3.9742 H         1 UNK         0.0748 
    127 H127       36.6825   25.2916    4.1889 H         1 UNK         0.0771 
    128 H128       35.1332   25.3749    3.3604 H         1 UNK         0.0771 
    129 H129       36.6166   25.8327    2.5227 H         1 UNK         0.0771 
    130 H130       33.5166   27.7133    4.7799 H         1 UNK         0.2980 
    131 H131       33.8622   27.0706    7.5864 H         1 UNK         0.0545 
    132 H132       34.6273   31.0148    7.2877 H         1 UNK         0.3459 
    133 H133       34.6938   29.9879    5.8754 H         1 UNK         0.3459 
    134 H134       31.4616   28.3050    6.1451 H         1 UNK         0.0616 
    135 H135       31.4711   27.7825    7.8090 H         1 UNK         0.0616 
    136 H136       29.8940   26.7454    4.7714 H         1 UNK         0.0634 
    137 H137       31.5097   26.7192    4.0997 H         1 UNK         0.0634 
@<TRIPOS>BOND
     1    1    2 1    
     2    1   72 1    
     3    1   73 1    
     4    1   74 1    
     5    2    3 2    
     6    2    4 am   BACKBONE|DICT|INTERRES
     7    4    5 1    
     8    4   75 1    
     9    5    6 1    
    10    5   35 1    
    11    5   76 1    
    12    6    7 1    
    13    6   77 1    
    14    6   78 1    
    15    7    8 1    
    16    8    9 1    
    17    8   79 1    
    18    8   80 1    
    19    9   10 ar   
    20    9   14 ar   
    21   10   11 ar   
    22   10   81 1    
    23   11   12 ar   
    24   11   71 1    
    25   12   13 ar   
    26   12   82 1    
    27   13   14 ar   
    28   13   15 1    
    29   14   83 1    
    30   15   16 1    
    31   15   84 1    
    32   15   85 1    
    33   16   17 1    
    34   17   18 1    
    35   17   86 1    
    36   17   87 1    
    37   18   19 1    
    38   18   37 1    
    39   18   88 1    
    40   19   20 am   BACKBONE|DICT|INTERRES
    41   19   89 1    
    42   20   21 2    
    43   20   22 1    
    44   22   23 1    
    45   22   24 1    
    46   22   90 1    
    47   23   91 1    
    48   23   92 1    
    49   23   93 1    
    50   24   25 am   BACKBONE|DICT|INTERRES
    51   24   94 1    
    52   25   26 2    
    53   25   27 1    
    54   27   28 1    
    55   27   29 1    
    56   27   95 1    
    57   28   96 1    
    58   28   97 1    
    59   28   98 1    
    60   29   30 am   BACKBONE|DICT|INTERRES
    61   29   99 1    
    62   30   31 2    
    63   30   32 1    
    64   32   33 1    
    65   32   34 1    
    66   32  100 1    
    67   33  101 1    
    68   33  102 1    
    69   33  103 1    
    70   34   35 am   BACKBONE|DICT|INTERRES
    71   34  104 1    
    72   35   36 2    
    73   37   38 2    
    74   37   39 am   BACKBONE|DICT|INTERRES
    75   39   40 1    
    76   39  105 1    
    77   40   41 1    
    78   40   42 1    
    79   40  106 1    
    80   41  107 1    
    81   41  108 1    
    82   41  109 1    
    83   42   43 2    
    84   42   44 am   BACKBONE|DICT|INTERRES
    85   44   45 1    
    86   44  110 1    
    87   45   46 1    
    88   45   47 1    
    89   45  111 1    
    90   46  112 1    
    91   46  113 1    
    92   46  114 1    
    93   47   48 2    
    94   47   49 am   BACKBONE|DICT|INTERRES
    95   49   50 1    
    96   49  115 1    
    97   50   51 1    
    98   50   52 1    
    99   50  116 1    
   100   51  117 1    
   101   51  118 1    
   102   51  119 1    
   103   52   53 2    
   104   52   54 am   BACKBONE|DICT|INTERRES
   105   54   55 1    
   106   54  120 1    
   107   55   56 1    
   108   55   57 1    
   109   55  121 1    
   110   56  122 1    
   111   56  123 1    
   112   56  124 1    
   113   57   58 2    
   114   57   59 am   BACKBONE|DICT|INTERRES
   115   59   60 1    
   116   59  125 1    
   117   60   61 1    
   118   60   62 1    
   119   60  126 1    
   120   61  127 1    
   121   61  128 1    
   122   61  129 1    
   123   62   63 2    
   124   62   64 am   BACKBONE|DICT|INTERRES
   125   64   65 1    
   126   64  130 1    
   127   65   66 1    
   128   65   69 1    
   129   65  131 1    
   130   66   67 am   BACKBONE|DICT|INTERRES
   131   66   68 2    
   132   67  132 1    
   133   67  133 1    
   134   69   70 1    
   135   69  134 1    
   136   69  135 1    
   137   70   71 1    
   138   71  136 1    
   139   71  137 1    
@<TRIPOS>SUBSTRUCTURE
     1 UNK         1 GROUP             0       ****    0 ROOT    
