@<TRIPOS>MOLECULE
3R136
137   139    1
SMALL
USER_CHARGES


@<TRIPOS>ATOM
      1 CA         27.5309   22.2774   -0.3516 C.3       0 UNK        -0.1979 
      2 C          28.3472   23.1658    0.5733 C.2       0 UNK         0.4864 
      3 O          28.1925   24.3888    0.5312 O.2       0 UNK        -0.5359 
      4 N          29.2013   22.5596    1.4110 N.am      1 UNK        -0.4318 
      5 CA         30.0742   23.2254    2.3842 C.3       1 UNK         0.0824 
      6 C6         30.9641   22.2134    3.1568 C.3       12 UNK        -0.0944 
      7 S7         32.1053   21.1108    2.2344 S.3       12 UNK        -0.2672 
      8 C8         32.1829   21.6675    0.4926 C.3       12 UNK         0.0333 
      9 C9         32.7176   23.0814    0.2823 C.ar      12 UNK        -0.0807 
     10 C10        33.6797   23.6435    1.1291 C.ar      12 UNK        -0.0894 
     11 C11        34.1218   24.9550    0.9340 C.ar      12 UNK        -0.0804 
     12 C12        33.6216   25.6988   -0.1382 C.ar      12 UNK        -0.0824 
     13 C13        32.6847   25.1384   -1.0113 C.ar      12 UNK        -0.0762 
     14 C14        32.2388   23.8316   -0.7954 C.ar      12 UNK        -0.0782 
     15 C15        32.1492   25.9428   -2.1876 C.3       12 UNK         0.0230 
     16 S16        30.3576   26.2343   -2.0544 S.3       12 UNK        -0.2608 
     17 C17        30.2745   27.1631   -0.4877 C.3       12 UNK        -0.0989 
     18 CA         28.9469   27.9472   -0.3528 C.3       5 UNK         0.0716 
     19 N          27.7901   27.0491   -0.3614 N.am      5 UNK        -0.4135 
     20 C          26.5495   27.3808   -0.7418 C.2       4 UNK         0.5031 
     21 O          26.2270   28.5143   -1.1023 O.2       4 UNK        -0.5229 
     22 CA         25.4877   26.2784   -0.6697 C.3       4 UNK         0.0329 
     23 CB         25.6784   25.2591   -1.8055 C.3       4 UNK        -0.2001 
     24 N          25.5700   25.6034    0.6250 N.am      4 UNK        -0.4303 
     25 C          24.6502   25.6934    1.5936 C.2       3 UNK         0.5044 
     26 O          23.5674   26.2675    1.4701 O.2       3 UNK        -0.5152 
     27 CA         25.0015   25.0397    2.9405 C.3       3 UNK         0.0319 
     28 CB         24.6890   23.5349    2.9084 C.3       3 UNK        -0.2001 
     29 N          26.3975   25.2329    3.3386 N.am      3 UNK        -0.4354 
     30 C          26.9900   26.4058    3.5993 C.2       2 UNK         0.4964 
     31 O          26.4074   27.4868    3.5407 O.2       2 UNK        -0.5047 
     32 CA         28.4797   26.3856    4.0003 C.3       2 UNK         0.0288 
     33 CB         28.6262   26.2839    5.5303 C.3       2 UNK        -0.2113 
     34 N          29.2998   25.3790    3.3015 N.am      2 UNK        -0.4145 
     35 C          29.2197   24.0408    3.3776 C.2       1 UNK         0.5006 
     36 O          28.4530   23.4407    4.1342 O.2       1 UNK        -0.5103 
     37 C          28.9229   28.8574    0.8929 C.2       5 UNK         0.5055 
     38 O          29.8316   28.7941    1.7209 O.2       5 UNK        -0.5220 
     39 N          27.8709   29.6767    1.0051 N.am      6 UNK        -0.4450 
     40 CA         27.6706   30.6578    2.0754 C.3       6 UNK         0.0367 
     41 CB         26.1598   30.8117    2.3210 C.3       6 UNK        -0.1929 
     42 C          28.2900   32.0297    1.7492 C.2       6 UNK         0.5070 
     43 O          28.3273   32.8963    2.6237 O.2       6 UNK        -0.5237 
     44 N          28.7243   32.2289    0.4964 N.am      7 UNK        -0.4739 
     45 CA         29.2784   33.4747   -0.0369 C.3       7 UNK         0.0276 
     46 CB         29.3150   33.3809   -1.5736 C.3       7 UNK        -0.1927 
     47 C          30.6627   33.7928    0.5574 C.2       7 UNK         0.5013 
     48 O          31.6812   33.4601   -0.0517 O.2       7 UNK        -0.5193 
     49 N          30.6577   34.4152    1.7451 N.am      8 UNK        -0.4253 
     50 CA         31.8181   34.8129    2.5528 C.3       8 UNK         0.0242 
     51 CB         32.6254   35.9241    1.8468 C.3       8 UNK        -0.2000 
     52 C          32.6870   33.6136    2.9822 C.2       8 UNK         0.4948 
     53 O          33.9165   33.7076    2.9779 O.2       8 UNK        -0.5275 
     54 N          32.0300   32.5077    3.3487 N.am      9 UNK        -0.4246 
     55 CA         32.6476   31.2658    3.7991 C.3       9 UNK         0.0261 
     56 CB         32.9651   30.3752    2.5843 C.3       9 UNK        -0.1959 
     57 C          31.6977   30.5655    4.7766 C.2       9 UNK         0.5033 
     58 O          30.4920   30.8272    4.7558 O.2       9 UNK        -0.5390 
     59 N          32.2640   29.6896    5.6118 N.am      10 UNK        -0.4215 
     60 CA         31.5590   28.9012    6.6205 C.3       10 UNK         0.0240 
     61 CB         31.4135   29.7116    7.9244 C.3       10 UNK        -0.1982 
     62 C          32.3100   27.5760    6.8058 C.2       10 UNK         0.4970 
     63 O          32.8063   27.2857    7.8948 O.2       10 UNK        -0.4916 
     64 N          32.4202   26.8218    5.7067 N.am      11 UNK        -0.4279 
     65 CA         33.1841   25.5676    5.5997 C.3       11 UNK         0.1003 
     66 C          32.5989   24.3471    6.3725 C.2       11 UNK         0.5709 
     67 N          31.4111   24.4262    6.9586 N.am      11 UNK        -0.7358 
     68 O          33.2429   23.3036    6.4444 O.2       11 UNK        -0.4999 
     69 C69        33.4476   25.2060    4.1156 C.3       12 UNK        -0.0954 
     70 S70        34.3167   26.5255    3.2029 S.3       12 UNK        -0.2268 
     71 C71        35.1347   25.5707    1.8875 C.3       12 UNK         0.0203 
     72 H72        27.7037   21.2188   -0.1586 H         1 UNK         0.0888 
     73 H73        26.4675   22.4768   -0.2221 H         1 UNK         0.0888 
     74 H74        27.7924   22.4809   -1.3896 H         1 UNK         0.0888 
     75 H75        29.2503   21.5511    1.4178 H         1 UNK         0.3017 
     76 H76        30.7156   23.9196    1.8408 H         1 UNK         0.0873 
     77 H77        31.5828   22.7519    3.8762 H         1 UNK         0.0745 
     78 H78        30.3345   21.5567    3.7609 H         1 UNK         0.0745 
     79 H79        32.8423   20.9838   -0.0431 H         1 UNK         0.0705 
     80 H80        31.2030   21.5495    0.0310 H         1 UNK         0.0705 
     81 H81        34.0745   23.0686    1.9548 H         1 UNK         0.1334 
     82 H82        33.9624   26.7141   -0.2890 H         1 UNK         0.1417 
     83 H83        31.5041   23.4058   -1.4657 H         1 UNK         0.1562 
     84 H84        32.3520   25.4015   -3.1127 H         1 UNK         0.0748 
     85 H85        32.6623   26.9019   -2.2740 H         1 UNK         0.0748 
     86 H86        30.3996   26.4621    0.3396 H         1 UNK         0.0940 
     87 H87        31.1257   27.8460   -0.4457 H         1 UNK         0.0940 
     88 H88        28.8745   28.6086   -1.2192 H         1 UNK         0.0703 
     89 H89        27.9783   26.0881   -0.0814 H         1 UNK         0.3081 
     90 H90        24.5102   26.7480   -0.7985 H         1 UNK         0.0719 
     91 H91        26.6628   24.7913   -1.7763 H         1 UNK         0.0809 
     92 H92        24.9301   24.4679   -1.7563 H         1 UNK         0.0809 
     93 H93        25.5779   25.7408   -2.7789 H         1 UNK         0.0809 
     94 H94        26.4419   25.1220    0.8250 H         1 UNK         0.2990 
     95 H95        24.3754   25.5034    3.7055 H         1 UNK         0.0690 
     96 H96        24.8440   23.0774    3.8858 H         1 UNK         0.0788 
     97 H97        25.3156   23.0066    2.1887 H         1 UNK         0.0788 
     98 H98        23.6493   23.3575    2.6296 H         1 UNK         0.0788 
     99 H99        26.9579   24.3976    3.4823 H         1 UNK         0.2993 
    100 H100       28.8860   27.3537    3.7046 H         1 UNK         0.0949 
    101 H101       28.2135   25.3544    5.9234 H         1 UNK         0.0767 
    102 H102       29.6690   26.3416    5.8287 H         1 UNK         0.0767 
    103 H103       28.1026   27.1035    6.0246 H         1 UNK         0.0767 
    104 H104       29.9150   25.7648    2.5992 H         1 UNK         0.3013 
    105 H105       27.1474   29.6107    0.2945 H         1 UNK         0.3121 
    106 H106       28.1352   30.2938    2.9949 H         1 UNK         0.0774 
    107 H107       25.6460   31.2089    1.4447 H         1 UNK         0.0815 
    108 H108       25.9666   31.4935    3.1503 H         1 UNK         0.0815 
    109 H109       25.6977   29.8581    2.5749 H         1 UNK         0.0815 
    110 H110       28.6678   31.4533   -0.1462 H         1 UNK         0.2987 
    111 H111       28.6037   34.2923    0.2276 H         1 UNK         0.0949 
    112 H112       29.9308   32.5481   -1.9160 H         1 UNK         0.0806 
    113 H113       28.3149   33.2510   -1.9876 H         1 UNK         0.0806 
    114 H114       29.7283   34.2916   -2.0094 H         1 UNK         0.0806 
    115 H115       29.7544   34.5354    2.1895 H         1 UNK         0.3010 
    116 H116       31.4167   35.2363    3.4748 H         1 UNK         0.0829 
    117 H117       31.9887   36.7657    1.5744 H         1 UNK         0.0813 
    118 H118       33.4102   36.3109    2.4980 H         1 UNK         0.0813 
    119 H119       33.1080   35.5602    0.9390 H         1 UNK         0.0813 
    120 H120       31.0171   32.5086    3.3862 H         1 UNK         0.3038 
    121 H121       33.5725   31.4948    4.3333 H         1 UNK         0.0769 
    122 H122       32.0692   30.1584    2.0023 H         1 UNK         0.0811 
    123 H123       33.3952   29.4219    2.8915 H         1 UNK         0.0811 
    124 H124       33.6835   30.8548    1.9193 H         1 UNK         0.0811 
    125 H125       33.2593   29.5208    5.5439 H         1 UNK         0.3204 
    126 H126       30.5593   28.6552    6.2562 H         1 UNK         0.0748 
    127 H127       30.8987   29.1307    8.6907 H         1 UNK         0.0771 
    128 H128       32.3836   30.0031    8.3287 H         1 UNK         0.0771 
    129 H129       30.8322   30.6197    7.7630 H         1 UNK         0.0771 
    130 H130       32.0046   27.1521    4.8487 H         1 UNK         0.2980 
    131 H131       34.1553   25.7553    6.0617 H         1 UNK         0.0545 
    132 H132       30.8853   25.2826    6.9410 H         1 UNK         0.3459 
    133 H133       31.0564   23.6251    7.4561 H         1 UNK         0.3459 
    134 H134       34.0475   24.2964    4.0526 H         1 UNK         0.0616 
    135 H135       32.5097   24.9971    3.5993 H         1 UNK         0.0616 
    136 H136       35.8052   26.2324    1.3373 H         1 UNK         0.0634 
    137 H137       35.7649   24.7992    2.3326 H         1 UNK         0.0634 
@<TRIPOS>BOND
     1    1    2 1    
     2    1   72 1    
     3    1   73 1    
     4    1   74 1    
     5    2    3 2    
     6    2    4 am   BACKBONE|DICT|INTERRES
     7    4    5 1    
     8    4   75 1    
     9    5    6 1    
    10    5   35 1    
    11    5   76 1    
    12    6    7 1    
    13    6   77 1    
    14    6   78 1    
    15    7    8 1    
    16    8    9 1    
    17    8   79 1    
    18    8   80 1    
    19    9   10 ar   
    20    9   14 ar   
    21   10   11 ar   
    22   10   81 1    
    23   11   12 ar   
    24   11   71 1    
    25   12   13 ar   
    26   12   82 1    
    27   13   14 ar   
    28   13   15 1    
    29   14   83 1    
    30   15   16 1    
    31   15   84 1    
    32   15   85 1    
    33   16   17 1    
    34   17   18 1    
    35   17   86 1    
    36   17   87 1    
    37   18   19 1    
    38   18   37 1    
    39   18   88 1    
    40   19   20 am   BACKBONE|DICT|INTERRES
    41   19   89 1    
    42   20   21 2    
    43   20   22 1    
    44   22   23 1    
    45   22   24 1    
    46   22   90 1    
    47   23   91 1    
    48   23   92 1    
    49   23   93 1    
    50   24   25 am   BACKBONE|DICT|INTERRES
    51   24   94 1    
    52   25   26 2    
    53   25   27 1    
    54   27   28 1    
    55   27   29 1    
    56   27   95 1    
    57   28   96 1    
    58   28   97 1    
    59   28   98 1    
    60   29   30 am   BACKBONE|DICT|INTERRES
    61   29   99 1    
    62   30   31 2    
    63   30   32 1    
    64   32   33 1    
    65   32   34 1    
    66   32  100 1    
    67   33  101 1    
    68   33  102 1    
    69   33  103 1    
    70   34   35 am   BACKBONE|DICT|INTERRES
    71   34  104 1    
    72   35   36 2    
    73   37   38 2    
    74   37   39 am   BACKBONE|DICT|INTERRES
    75   39   40 1    
    76   39  105 1    
    77   40   41 1    
    78   40   42 1    
    79   40  106 1    
    80   41  107 1    
    81   41  108 1    
    82   41  109 1    
    83   42   43 2    
    84   42   44 am   BACKBONE|DICT|INTERRES
    85   44   45 1    
    86   44  110 1    
    87   45   46 1    
    88   45   47 1    
    89   45  111 1    
    90   46  112 1    
    91   46  113 1    
    92   46  114 1    
    93   47   48 2    
    94   47   49 am   BACKBONE|DICT|INTERRES
    95   49   50 1    
    96   49  115 1    
    97   50   51 1    
    98   50   52 1    
    99   50  116 1    
   100   51  117 1    
   101   51  118 1    
   102   51  119 1    
   103   52   53 2    
   104   52   54 am   BACKBONE|DICT|INTERRES
   105   54   55 1    
   106   54  120 1    
   107   55   56 1    
   108   55   57 1    
   109   55  121 1    
   110   56  122 1    
   111   56  123 1    
   112   56  124 1    
   113   57   58 2    
   114   57   59 am   BACKBONE|DICT|INTERRES
   115   59   60 1    
   116   59  125 1    
   117   60   61 1    
   118   60   62 1    
   119   60  126 1    
   120   61  127 1    
   121   61  128 1    
   122   61  129 1    
   123   62   63 2    
   124   62   64 am   BACKBONE|DICT|INTERRES
   125   64   65 1    
   126   64  130 1    
   127   65   66 1    
   128   65   69 1    
   129   65  131 1    
   130   66   67 am   BACKBONE|DICT|INTERRES
   131   66   68 2    
   132   67  132 1    
   133   67  133 1    
   134   69   70 1    
   135   69  134 1    
   136   69  135 1    
   137   70   71 1    
   138   71  136 1    
   139   71  137 1    
@<TRIPOS>SUBSTRUCTURE
     1 UNK         1 GROUP             0       ****    0 ROOT    
