@<TRIPOS>MOLECULE
3R136
137   139    1
SMALL
USER_CHARGES


@<TRIPOS>ATOM
      1 CA         27.2450   21.8126   -3.9741 C.3       0 UNK        -0.1979 
      2 C          27.5890   22.8603   -2.9268 C.2       0 UNK         0.4864 
      3 O          26.7097   23.6125   -2.5036 O.2       0 UNK        -0.5359 
      4 N          28.8570   22.9039   -2.4897 N.am      1 UNK        -0.4318 
      5 CA         29.3900   23.8549   -1.5019 C.3       1 UNK         0.0824 
      6 C6         30.9238   23.7102   -1.3308 C.3       12 UNK        -0.0944 
      7 S7         31.4346   22.0935   -0.6393 S.3       12 UNK        -0.2672 
      8 C8         32.8150   22.5415    0.4662 C.3       12 UNK         0.0333 
      9 C9         32.4527   23.5826    1.5212 C.ar      12 UNK        -0.0807 
     10 C10        33.1880   24.7706    1.5994 C.ar      12 UNK        -0.0894 
     11 C11        32.8952   25.7247    2.5766 C.ar      12 UNK        -0.0804 
     12 C12        31.8517   25.4897    3.4723 C.ar      12 UNK        -0.0824 
     13 C13        31.1097   24.3098    3.4126 C.ar      12 UNK        -0.0762 
     14 C14        31.4144   23.3560    2.4339 C.ar      12 UNK        -0.0782 
     15 C15        30.0082   24.0600    4.4328 C.3       12 UNK         0.0230 
     16 S16        28.4384   24.8564    3.9682 S.3       12 UNK        -0.2608 
     17 C17        28.6603   26.5924    4.4858 C.3       12 UNK        -0.0989 
     18 CA         28.8066   27.5820    3.2993 C.3       5 UNK         0.0716 
     19 N          27.7522   27.4116    2.2852 N.am      5 UNK        -0.4135 
     20 C          27.6254   28.1328    1.1611 C.2       4 UNK         0.5031 
     21 O          28.3383   29.1015    0.8999 O.2       4 UNK        -0.5229 
     22 CA         26.5194   27.7478    0.1643 C.3       4 UNK         0.0329 
     23 CB         26.9935   27.8982   -1.2941 C.3       4 UNK        -0.2001 
     24 N          26.0214   26.3832    0.3535 N.am      4 UNK        -0.4303 
     25 C          24.7241   26.0413    0.3764 C.2       3 UNK         0.5044 
     26 O          23.8079   26.8646    0.4023 O.2       3 UNK        -0.5152 
     27 CA         24.3599   24.5441    0.3270 C.3       3 UNK         0.0319 
     28 CB         23.5826   24.2216   -0.9611 C.3       3 UNK        -0.2001 
     29 N          25.5315   23.6700    0.3923 N.am      3 UNK        -0.4354 
     30 C          26.0413   23.1705    1.5271 C.2       2 UNK         0.4964 
     31 O          25.5214   23.3294    2.6317 O.2       2 UNK        -0.5047 
     32 CA         27.3495   22.3601    1.4281 C.3       2 UNK         0.0288 
     33 CB         27.0526   20.8534    1.4963 C.3       2 UNK        -0.2113 
     34 N          28.1507   22.6292    0.2317 N.am      2 UNK        -0.4145 
     35 C          28.6498   23.8169   -0.1465 C.2       1 UNK         0.5006 
     36 O          28.4902   24.8610    0.4838 O.2       1 UNK        -0.5103 
     37 C          28.9110   29.0267    3.8370 C.2       5 UNK         0.5055 
     38 O          30.0156   29.5575    3.9621 O.2       5 UNK        -0.5220 
     39 N          27.7549   29.6429    4.1230 N.am      6 UNK        -0.4450 
     40 CA         27.6508   31.0185    4.6168 C.3       6 UNK         0.0367 
     41 CB         26.2467   31.2431    5.2007 C.3       6 UNK        -0.1929 
     42 C          27.9619   32.0793    3.5461 C.2       6 UNK         0.5070 
     43 O          28.4278   33.1635    3.8959 O.2       6 UNK        -0.5237 
     44 N          27.7005   31.7592    2.2710 N.am      7 UNK        -0.4739 
     45 CA         28.0056   32.6212    1.1267 C.3       7 UNK         0.0276 
     46 CB         27.1079   32.2418   -0.0626 C.3       7 UNK        -0.1927 
     47 C          29.4906   32.5417    0.7413 C.2       7 UNK         0.5013 
     48 O          30.0789   33.5647    0.3892 O.2       7 UNK        -0.5193 
     49 N          30.0676   31.3348    0.8310 N.am      8 UNK        -0.4253 
     50 CA         31.4875   31.0583    0.6113 C.3       8 UNK         0.0242 
     51 CB         31.7112   29.5367    0.5889 C.3       8 UNK        -0.2000 
     52 C          32.3968   31.7223    1.6597 C.2       8 UNK         0.4948 
     53 O          33.4741   32.1977    1.2957 O.2       8 UNK        -0.5275 
     54 N          31.9351   31.7495    2.9213 N.am      9 UNK        -0.4246 
     55 CA         32.6303   32.2420    4.1188 C.3       9 UNK         0.0261 
     56 CB         32.9930   33.7376    3.9847 C.3       9 UNK        -0.1959 
     57 C          33.8375   31.3582    4.4912 C.2       9 UNK         0.5033 
     58 O          34.0122   30.2882    3.9037 O.2       9 UNK        -0.5390 
     59 N          34.6061   31.7735    5.5109 N.am      10 UNK        -0.4215 
     60 CA         35.7187   31.0440    6.1417 C.3       10 UNK         0.0240 
     61 CB         36.9140   30.8899    5.1743 C.3       10 UNK        -0.1982 
     62 C          35.2473   29.7075    6.7472 C.2       10 UNK         0.4970 
     63 O          34.8690   29.6768    7.9188 O.2       10 UNK        -0.4916 
     64 N          35.2304   28.6515    5.9259 N.am      11 UNK        -0.4279 
     65 CA         34.5092   27.3942    6.1706 C.3       11 UNK         0.1003 
     66 C          32.9623   27.5538    6.2417 C.2       11 UNK         0.5709 
     67 N          32.3819   28.5676    5.6132 N.am      11 UNK        -0.7358 
     68 O          32.2859   26.7458    6.8727 O.2       11 UNK        -0.4999 
     69 C69        34.9245   26.2701    5.1728 C.3       12 UNK        -0.0954 
     70 S70        35.3151   26.8017    3.4609 S.3       12 UNK        -0.2268 
     71 C71        33.6927   27.0165    2.6579 C.3       12 UNK         0.0203 
     72 H72        26.8734   22.2953   -4.8776 H         1 UNK         0.0888 
     73 H73        28.1093   21.2060   -4.2440 H         1 UNK         0.0888 
     74 H74        26.4675   21.1482   -3.5981 H         1 UNK         0.0888 
     75 H75        29.5303   22.2476   -2.8603 H         1 UNK         0.3017 
     76 H76        29.2056   24.8496   -1.9136 H         1 UNK         0.0873 
     77 H77        31.4174   23.8365   -2.2956 H         1 UNK         0.0745 
     78 H78        31.2992   24.5226   -0.7070 H         1 UNK         0.0745 
     79 H79        33.1648   21.6396    0.9702 H         1 UNK         0.0705 
     80 H80        33.6469   22.8877   -0.1491 H         1 UNK         0.0705 
     81 H81        33.9974   24.9536    0.9057 H         1 UNK         0.1334 
     82 H82        31.6153   26.2266    4.2232 H         1 UNK         0.1417 
     83 H83        30.8471   22.4367    2.3808 H         1 UNK         0.1562 
     84 H84        30.3215   24.4022    5.4206 H         1 UNK         0.0748 
     85 H85        29.8329   22.9875    4.5298 H         1 UNK         0.0748 
     86 H86        29.5179   26.6660    5.1569 H         1 UNK         0.0940 
     87 H87        27.7911   26.8534    5.0928 H         1 UNK         0.0940 
     88 H88        29.7489   27.3644    2.7927 H         1 UNK         0.0703 
     89 H89        27.1524   26.6092    2.4106 H         1 UNK         0.3081 
     90 H90        25.7168   28.4684    0.3319 H         1 UNK         0.0719 
     91 H91        27.8325   27.2355   -1.5101 H         1 UNK         0.0809 
     92 H92        26.1936   27.6652   -1.9970 H         1 UNK         0.0809 
     93 H93        27.3186   28.9176   -1.5054 H         1 UNK         0.0809 
     94 H94        26.7338   25.6573    0.3706 H         1 UNK         0.2990 
     95 H95        23.7005   24.3431    1.1740 H         1 UNK         0.0690 
     96 H96        22.6651   24.8083   -1.0235 H         1 UNK         0.0788 
     97 H97        23.2961   23.1705   -0.9993 H         1 UNK         0.0788 
     98 H98        24.1710   24.4416   -1.8528 H         1 UNK         0.0788 
     99 H99        26.0164   23.5061   -0.4843 H         1 UNK         0.2993 
    100 H100       27.9618   22.6221    2.2908 H         1 UNK         0.0949 
    101 H101       27.9720   20.2680    1.5261 H         1 UNK         0.0767 
    102 H102       26.4857   20.6073    2.3954 H         1 UNK         0.0767 
    103 H103       26.4667   20.5188    0.6392 H         1 UNK         0.0767 
    104 H104       28.3400   21.8391   -0.3676 H         1 UNK         0.3013 
    105 H105       26.8912   29.1380    3.9858 H         1 UNK         0.3121 
    106 H106       28.3778   31.1456    5.4223 H         1 UNK         0.0774 
    107 H107       26.1492   32.2528    5.6025 H         1 UNK         0.0815 
    108 H108       25.4691   31.1171    4.4462 H         1 UNK         0.0815 
    109 H109       26.0401   30.5510    6.0172 H         1 UNK         0.0815 
    110 H110       27.3812   30.8236    2.0612 H         1 UNK         0.2987 
    111 H111       27.7870   33.6568    1.3977 H         1 UNK         0.0949 
    112 H112       27.2817   31.2183   -0.3950 H         1 UNK         0.0806 
    113 H113       26.0522   32.3377    0.1910 H         1 UNK         0.0806 
    114 H114       27.2968   32.8959   -0.9149 H         1 UNK         0.0806 
    115 H115       29.4758   30.5349    1.0483 H         1 UNK         0.3010 
    116 H116       31.7572   31.4603   -0.3674 H         1 UNK         0.0829 
    117 H117       31.1169   29.0582   -0.1898 H         1 UNK         0.0813 
    118 H118       32.7578   29.3008    0.3929 H         1 UNK         0.0813 
    119 H119       31.4449   29.0763    1.5413 H         1 UNK         0.0813 
    120 H120       31.0790   31.2385    3.1073 H         1 UNK         0.3038 
    121 H121       31.9115   32.1416    4.9335 H         1 UNK         0.0769 
    122 H122       33.8235   33.8956    3.2959 H         1 UNK         0.0811 
    123 H123       33.2810   34.1665    4.9446 H         1 UNK         0.0811 
    124 H124       32.1441   34.3170    3.6209 H         1 UNK         0.0811 
    125 H125       34.3580   32.6441    5.9602 H         1 UNK         0.3204 
    126 H126       36.0568   31.6588    6.9775 H         1 UNK         0.0748 
    127 H127       37.7310   30.3436    5.6478 H         1 UNK         0.0771 
    128 H128       36.6518   30.3571    4.2598 H         1 UNK         0.0771 
    129 H129       37.3058   31.8643    4.8825 H         1 UNK         0.0771 
    130 H130       35.4852   28.8104    4.9601 H         1 UNK         0.2980 
    131 H131       34.8052   27.0581    7.1662 H         1 UNK         0.0545 
    132 H132       31.3814   28.6863    5.6336 H         1 UNK         0.3459 
    133 H133       32.9449   29.1785    5.0301 H         1 UNK         0.3459 
    134 H134       35.8375   25.8075    5.5502 H         1 UNK         0.0616 
    135 H135       34.1964   25.4576    5.1469 H         1 UNK         0.0616 
    136 H136       33.8605   27.3951    1.6490 H         1 UNK         0.0634 
    137 H137       33.1250   27.7919    3.1699 H         1 UNK         0.0634 
@<TRIPOS>BOND
     1    1    2 1    
     2    1   72 1    
     3    1   73 1    
     4    1   74 1    
     5    2    3 2    
     6    2    4 am   BACKBONE|DICT|INTERRES
     7    4    5 1    
     8    4   75 1    
     9    5    6 1    
    10    5   35 1    
    11    5   76 1    
    12    6    7 1    
    13    6   77 1    
    14    6   78 1    
    15    7    8 1    
    16    8    9 1    
    17    8   79 1    
    18    8   80 1    
    19    9   10 ar   
    20    9   14 ar   
    21   10   11 ar   
    22   10   81 1    
    23   11   12 ar   
    24   11   71 1    
    25   12   13 ar   
    26   12   82 1    
    27   13   14 ar   
    28   13   15 1    
    29   14   83 1    
    30   15   16 1    
    31   15   84 1    
    32   15   85 1    
    33   16   17 1    
    34   17   18 1    
    35   17   86 1    
    36   17   87 1    
    37   18   19 1    
    38   18   37 1    
    39   18   88 1    
    40   19   20 am   BACKBONE|DICT|INTERRES
    41   19   89 1    
    42   20   21 2    
    43   20   22 1    
    44   22   23 1    
    45   22   24 1    
    46   22   90 1    
    47   23   91 1    
    48   23   92 1    
    49   23   93 1    
    50   24   25 am   BACKBONE|DICT|INTERRES
    51   24   94 1    
    52   25   26 2    
    53   25   27 1    
    54   27   28 1    
    55   27   29 1    
    56   27   95 1    
    57   28   96 1    
    58   28   97 1    
    59   28   98 1    
    60   29   30 am   BACKBONE|DICT|INTERRES
    61   29   99 1    
    62   30   31 2    
    63   30   32 1    
    64   32   33 1    
    65   32   34 1    
    66   32  100 1    
    67   33  101 1    
    68   33  102 1    
    69   33  103 1    
    70   34   35 am   BACKBONE|DICT|INTERRES
    71   34  104 1    
    72   35   36 2    
    73   37   38 2    
    74   37   39 am   BACKBONE|DICT|INTERRES
    75   39   40 1    
    76   39  105 1    
    77   40   41 1    
    78   40   42 1    
    79   40  106 1    
    80   41  107 1    
    81   41  108 1    
    82   41  109 1    
    83   42   43 2    
    84   42   44 am   BACKBONE|DICT|INTERRES
    85   44   45 1    
    86   44  110 1    
    87   45   46 1    
    88   45   47 1    
    89   45  111 1    
    90   46  112 1    
    91   46  113 1    
    92   46  114 1    
    93   47   48 2    
    94   47   49 am   BACKBONE|DICT|INTERRES
    95   49   50 1    
    96   49  115 1    
    97   50   51 1    
    98   50   52 1    
    99   50  116 1    
   100   51  117 1    
   101   51  118 1    
   102   51  119 1    
   103   52   53 2    
   104   52   54 am   BACKBONE|DICT|INTERRES
   105   54   55 1    
   106   54  120 1    
   107   55   56 1    
   108   55   57 1    
   109   55  121 1    
   110   56  122 1    
   111   56  123 1    
   112   56  124 1    
   113   57   58 2    
   114   57   59 am   BACKBONE|DICT|INTERRES
   115   59   60 1    
   116   59  125 1    
   117   60   61 1    
   118   60   62 1    
   119   60  126 1    
   120   61  127 1    
   121   61  128 1    
   122   61  129 1    
   123   62   63 2    
   124   62   64 am   BACKBONE|DICT|INTERRES
   125   64   65 1    
   126   64  130 1    
   127   65   66 1    
   128   65   69 1    
   129   65  131 1    
   130   66   67 am   BACKBONE|DICT|INTERRES
   131   66   68 2    
   132   67  132 1    
   133   67  133 1    
   134   69   70 1    
   135   69  134 1    
   136   69  135 1    
   137   70   71 1    
   138   71  136 1    
   139   71  137 1    
@<TRIPOS>SUBSTRUCTURE
     1 UNK         1 GROUP             0       ****    0 ROOT    
