@<TRIPOS>MOLECULE
3R136
137   139    1
SMALL
USER_CHARGES


@<TRIPOS>ATOM
      1 CA         30.0234   19.0147   -1.5594 C.3       0 UNK        -0.1979 
      2 C          29.7075   20.4837   -1.7986 C.2       0 UNK         0.4864 
      3 O          29.2511   20.8409   -2.8855 O.2       0 UNK        -0.5359 
      4 N          29.9509   21.3349   -0.7925 N.am      1 UNK        -0.4318 
      5 CA         29.7125   22.7841   -0.8368 C.3       1 UNK         0.0824 
      6 C6         30.3637   23.5145    0.3628 C.3       12 UNK        -0.0944 
      7 S7         32.1786   23.3351    0.3907 S.3       12 UNK        -0.2672 
      8 C8         32.4520   22.3901    1.9237 C.3       12 UNK         0.0333 
      9 C9         32.0957   23.1963    3.1655 C.ar      12 UNK        -0.0807 
     10 C10        32.9730   24.1747    3.6450 C.ar      12 UNK        -0.0894 
     11 C11        32.6532   24.9113    4.7891 C.ar      12 UNK        -0.0804 
     12 C12        31.4553   24.6530    5.4615 C.ar      12 UNK        -0.0824 
     13 C13        30.5685   23.6809    4.9911 C.ar      12 UNK        -0.0762 
     14 C14        30.8976   22.9519    3.8453 C.ar      12 UNK        -0.0782 
     15 C15        29.2717   23.3958    5.7379 C.3       12 UNK         0.0230 
     16 S16        28.2131   24.8701    5.9013 S.3       12 UNK        -0.2608 
     17 C17        27.7370   25.2079    4.1709 C.3       12 UNK        -0.0989 
     18 CA         28.4125   26.4617    3.5567 C.3       5 UNK         0.0716 
     19 N          28.1770   26.5108    2.1063 N.am      5 UNK        -0.4135 
     20 C          28.6506   27.4622    1.2853 C.2       4 UNK         0.5031 
     21 O          29.4437   28.3249    1.6528 O.2       4 UNK        -0.5229 
     22 CA         28.0834   27.5492   -0.1446 C.3       4 UNK         0.0329 
     23 CB         29.1379   27.1754   -1.1972 C.3       4 UNK        -0.2001 
     24 N          26.8529   26.7762   -0.3498 N.am      4 UNK        -0.4303 
     25 C          25.6815   27.0659    0.2418 C.2       3 UNK         0.5044 
     26 O          25.5312   28.0163    1.0102 O.2       3 UNK        -0.5152 
     27 CA         24.4905   26.1220   -0.0081 C.3       3 UNK         0.0319 
     28 CB         23.6029   26.6692   -1.1369 C.3       3 UNK        -0.2001 
     29 N          24.8631   24.7380   -0.3144 N.am      3 UNK        -0.4354 
     30 C          25.5923   23.9335    0.4716 C.2       2 UNK         0.4964 
     31 O          26.0494   24.2765    1.5636 O.2       2 UNK        -0.5047 
     32 CA         25.9239   22.5277   -0.0676 C.3       2 UNK         0.0288 
     33 CB         25.2016   22.1607   -1.3851 C.3       2 UNK        -0.2113 
     34 N          27.3728   22.3488   -0.2155 N.am      2 UNK        -0.4145 
     35 C          28.2130   23.1360   -0.9089 C.2       1 UNK         0.5006 
     36 O          27.8543   24.1139   -1.5688 O.2       1 UNK        -0.5103 
     37 C          27.9741   27.7704    4.2691 C.2       5 UNK         0.5055 
     38 O          28.6112   28.1806    5.2403 O.2       5 UNK        -0.5220 
     39 N          26.9319   28.4372    3.7456 N.am      6 UNK        -0.4450 
     40 CA         26.4394   29.7272    4.2327 C.3       6 UNK         0.0367 
     41 CB         24.9735   29.8966    3.7989 C.3       6 UNK        -0.1929 
     42 C          27.2823   30.9365    3.7766 C.2       6 UNK         0.5070 
     43 O          27.0035   32.0471    4.2286 O.2       6 UNK        -0.5237 
     44 N          28.2869   30.7381    2.9067 N.am      7 UNK        -0.4739 
     45 CA         29.1357   31.8052    2.3564 C.3       7 UNK         0.0276 
     46 CB         29.6660   31.3852    0.9747 C.3       7 UNK        -0.1927 
     47 C          30.2781   32.2515    3.2926 C.2       7 UNK         0.5013 
     48 O          31.1271   33.0346    2.8613 O.2       7 UNK        -0.5193 
     49 N          30.2824   31.7599    4.5414 N.am      8 UNK        -0.4253 
     50 CA         31.0942   32.1923    5.6853 C.3       8 UNK         0.0242 
     51 CB         30.5469   33.5279    6.2371 C.3       8 UNK        -0.2000 
     52 C          32.6055   32.2279    5.3941 C.2       8 UNK         0.4948 
     53 O          33.2505   31.1826    5.4466 O.2       8 UNK        -0.5275 
     54 N          33.1410   33.4211    5.0994 N.am      9 UNK        -0.4246 
     55 CA         34.5500   33.6584    4.7799 C.3       9 UNK         0.0261 
     56 CB         34.8110   35.1725    4.7268 C.3       9 UNK        -0.1959 
     57 C          35.0135   32.9852    3.4760 C.2       9 UNK         0.5033 
     58 O          36.1845   32.6126    3.3858 O.2       9 UNK        -0.5390 
     59 N          34.1075   32.8371    2.4977 N.am      10 UNK        -0.4215 
     60 CA         34.3730   32.1039    1.2571 C.3       10 UNK         0.0240 
     61 CB         33.4356   32.5978    0.1441 C.3       10 UNK        -0.1982 
     62 C          34.2375   30.5879    1.4705 C.2       10 UNK         0.4970 
     63 O          35.1173   29.8370    1.0479 O.2       10 UNK        -0.4916 
     64 N          33.1568   30.1873    2.1540 N.am      11 UNK        -0.4279 
     65 CA         32.8081   28.8070    2.5260 C.3       11 UNK         0.1003 
     66 C          32.5669   27.8487    1.3192 C.2       11 UNK         0.5709 
     67 N          32.3521   26.5674    1.5818 N.am      11 UNK        -0.7358 
     68 O          32.5435   28.2476    0.1560 O.2       11 UNK        -0.4999 
     69 C69        33.7936   28.2299    3.5924 C.3       12 UNK        -0.0954 
     70 S70        32.9335   27.6472    5.0910 S.3       12 UNK        -0.2268 
     71 C71        33.6017   25.9707    5.3265 C.3       12 UNK         0.0203 
     72 H72        29.1206   18.4144   -1.6683 H         1 UNK         0.0888 
     73 H73        30.7551   18.6654   -2.2875 H         1 UNK         0.0888 
     74 H74        30.4283   18.8407   -0.5626 H         1 UNK         0.0888 
     75 H75        30.3567   20.9838    0.0624 H         1 UNK         0.3017 
     76 H76        30.1689   23.1643   -1.7537 H         1 UNK         0.0873 
     77 H77        29.9329   23.1574    1.2975 H         1 UNK         0.0745 
     78 H78        30.1508   24.5832    0.3353 H         1 UNK         0.0745 
     79 H79        33.5023   22.0987    1.9723 H         1 UNK         0.0705 
     80 H80        31.8819   21.4608    1.8860 H         1 UNK         0.0705 
     81 H81        33.9021   24.3617    3.1231 H         1 UNK         0.1334 
     82 H82        31.2080   25.2176    6.3505 H         1 UNK         0.1417 
     83 H83        30.2225   22.1876    3.4855 H         1 UNK         0.1562 
     84 H84        29.5167   23.0298    6.7359 H         1 UNK         0.0748 
     85 H85        28.7025   22.6014    5.2526 H         1 UNK         0.0748 
     86 H86        26.6499   25.2997    4.1265 H         1 UNK         0.0940 
     87 H87        27.9791   24.3292    3.5706 H         1 UNK         0.0940 
     88 H88        29.4925   26.3684    3.6926 H         1 UNK         0.0703 
     89 H89        27.5068   25.8429    1.7423 H         1 UNK         0.3081 
     90 H90        27.8305   28.5995   -0.3054 H         1 UNK         0.0719 
     91 H91        28.7647   27.3418   -2.2077 H         1 UNK         0.0809 
     92 H92        30.0353   27.7849   -1.0801 H         1 UNK         0.0809 
     93 H93        29.4444   26.1351   -1.1233 H         1 UNK         0.0809 
     94 H94        26.9234   25.9484   -0.9322 H         1 UNK         0.2990 
     95 H95        23.9002   26.1017    0.9103 H         1 UNK         0.0690 
     96 H96        24.1281   26.6827   -2.0929 H         1 UNK         0.0788 
     97 H97        23.2869   27.6917   -0.9242 H         1 UNK         0.0788 
     98 H98        22.6987   26.0721   -1.2573 H         1 UNK         0.0788 
     99 H99        24.5632   24.3768   -1.2085 H         1 UNK         0.2993 
    100 H100       25.5951   21.8254    0.7000 H         1 UNK         0.0949 
    101 H101       25.4959   22.8056   -2.2141 H         1 UNK         0.0767 
    102 H102       25.4285   21.1351   -1.6772 H         1 UNK         0.0767 
    103 H103       24.1181   22.2252   -1.2755 H         1 UNK         0.0767 
    104 H104       27.7736   21.5840    0.3082 H         1 UNK         0.3013 
    105 H105       26.4827   28.0784    2.9095 H         1 UNK         0.3121 
    106 H106       26.4645   29.7144    5.3245 H         1 UNK         0.0774 
    107 H107       24.5414   30.8024    4.2264 H         1 UNK         0.0815 
    108 H108       24.8799   29.9743    2.7152 H         1 UNK         0.0815 
    109 H109       24.3594   29.0593    4.1307 H         1 UNK         0.0815 
    110 H110       28.5019   29.7954    2.5944 H         1 UNK         0.2987 
    111 H111       28.5084   32.6861    2.2030 H         1 UNK         0.0949 
    112 H112       30.4528   30.6344    1.0482 H         1 UNK         0.0806 
    113 H113       28.8723   30.9789    0.3478 H         1 UNK         0.0806 
    114 H114       30.0802   32.2428    0.4445 H         1 UNK         0.0806 
    115 H115       29.5767   31.0683    4.7526 H         1 UNK         0.3010 
    116 H116       30.9557   31.4379    6.4617 H         1 UNK         0.0829 
    117 H117       31.1357   33.8765    7.0869 H         1 UNK         0.0813 
    118 H118       30.5436   34.3183    5.4857 H         1 UNK         0.0813 
    119 H119       29.5213   33.4107    6.5879 H         1 UNK         0.0813 
    120 H120       32.5228   34.2181    5.0522 H         1 UNK         0.3038 
    121 H121       35.1466   33.2379    5.5923 H         1 UNK         0.0769 
    122 H122       34.2207   35.6576    3.9483 H         1 UNK         0.0811 
    123 H123       35.8611   35.3798    4.5159 H         1 UNK         0.0811 
    124 H124       34.5735   35.6507    5.6773 H         1 UNK         0.0811 
    125 H125       33.1529   33.1453    2.6618 H         1 UNK         0.3204 
    126 H126       35.3979   32.3053    0.9370 H         1 UNK         0.0748 
    127 H127       33.6108   32.0526   -0.7844 H         1 UNK         0.0771 
    128 H128       32.3879   32.4647    0.4082 H         1 UNK         0.0771 
    129 H129       33.5945   33.6558   -0.0652 H         1 UNK         0.0771 
    130 H130       32.5040   30.8930    2.4572 H         1 UNK         0.2980 
    131 H131       31.8220   28.9174    2.9790 H         1 UNK         0.0545 
    132 H132       32.2029   25.9246    0.8207 H         1 UNK         0.3459 
    133 H133       32.3381   26.2322    2.5327 H         1 UNK         0.3459 
    134 H134       34.4253   27.4423    3.1785 H         1 UNK         0.0616 
    135 H135       34.4917   28.9972    3.9313 H         1 UNK         0.0616 
    136 H136       33.7440   25.8049    6.3953 H         1 UNK         0.0634 
    137 H137       34.5915   25.8844    4.8761 H         1 UNK         0.0634 
@<TRIPOS>BOND
     1    1    2 1    
     2    1   72 1    
     3    1   73 1    
     4    1   74 1    
     5    2    3 2    
     6    2    4 am   BACKBONE|DICT|INTERRES
     7    4    5 1    
     8    4   75 1    
     9    5    6 1    
    10    5   35 1    
    11    5   76 1    
    12    6    7 1    
    13    6   77 1    
    14    6   78 1    
    15    7    8 1    
    16    8    9 1    
    17    8   79 1    
    18    8   80 1    
    19    9   10 ar   
    20    9   14 ar   
    21   10   11 ar   
    22   10   81 1    
    23   11   12 ar   
    24   11   71 1    
    25   12   13 ar   
    26   12   82 1    
    27   13   14 ar   
    28   13   15 1    
    29   14   83 1    
    30   15   16 1    
    31   15   84 1    
    32   15   85 1    
    33   16   17 1    
    34   17   18 1    
    35   17   86 1    
    36   17   87 1    
    37   18   19 1    
    38   18   37 1    
    39   18   88 1    
    40   19   20 am   BACKBONE|DICT|INTERRES
    41   19   89 1    
    42   20   21 2    
    43   20   22 1    
    44   22   23 1    
    45   22   24 1    
    46   22   90 1    
    47   23   91 1    
    48   23   92 1    
    49   23   93 1    
    50   24   25 am   BACKBONE|DICT|INTERRES
    51   24   94 1    
    52   25   26 2    
    53   25   27 1    
    54   27   28 1    
    55   27   29 1    
    56   27   95 1    
    57   28   96 1    
    58   28   97 1    
    59   28   98 1    
    60   29   30 am   BACKBONE|DICT|INTERRES
    61   29   99 1    
    62   30   31 2    
    63   30   32 1    
    64   32   33 1    
    65   32   34 1    
    66   32  100 1    
    67   33  101 1    
    68   33  102 1    
    69   33  103 1    
    70   34   35 am   BACKBONE|DICT|INTERRES
    71   34  104 1    
    72   35   36 2    
    73   37   38 2    
    74   37   39 am   BACKBONE|DICT|INTERRES
    75   39   40 1    
    76   39  105 1    
    77   40   41 1    
    78   40   42 1    
    79   40  106 1    
    80   41  107 1    
    81   41  108 1    
    82   41  109 1    
    83   42   43 2    
    84   42   44 am   BACKBONE|DICT|INTERRES
    85   44   45 1    
    86   44  110 1    
    87   45   46 1    
    88   45   47 1    
    89   45  111 1    
    90   46  112 1    
    91   46  113 1    
    92   46  114 1    
    93   47   48 2    
    94   47   49 am   BACKBONE|DICT|INTERRES
    95   49   50 1    
    96   49  115 1    
    97   50   51 1    
    98   50   52 1    
    99   50  116 1    
   100   51  117 1    
   101   51  118 1    
   102   51  119 1    
   103   52   53 2    
   104   52   54 am   BACKBONE|DICT|INTERRES
   105   54   55 1    
   106   54  120 1    
   107   55   56 1    
   108   55   57 1    
   109   55  121 1    
   110   56  122 1    
   111   56  123 1    
   112   56  124 1    
   113   57   58 2    
   114   57   59 am   BACKBONE|DICT|INTERRES
   115   59   60 1    
   116   59  125 1    
   117   60   61 1    
   118   60   62 1    
   119   60  126 1    
   120   61  127 1    
   121   61  128 1    
   122   61  129 1    
   123   62   63 2    
   124   62   64 am   BACKBONE|DICT|INTERRES
   125   64   65 1    
   126   64  130 1    
   127   65   66 1    
   128   65   69 1    
   129   65  131 1    
   130   66   67 am   BACKBONE|DICT|INTERRES
   131   66   68 2    
   132   67  132 1    
   133   67  133 1    
   134   69   70 1    
   135   69  134 1    
   136   69  135 1    
   137   70   71 1    
   138   71  136 1    
   139   71  137 1    
@<TRIPOS>SUBSTRUCTURE
     1 UNK         1 GROUP             0       ****    0 ROOT    
