@<TRIPOS>MOLECULE
3R136
137   139    1
SMALL
USER_CHARGES


@<TRIPOS>ATOM
      1 CA         26.2979   21.9049    0.9015 C.3       0 UNK        -0.1979 
      2 C          27.6124   22.4626    0.3805 C.2       0 UNK         0.4864 
      3 O          27.8917   23.6516    0.5518 O.2       0 UNK        -0.5359 
      4 N          28.4043   21.6061   -0.2794 N.am      1 UNK        -0.4318 
      5 CA         29.6735   21.9336   -0.9457 C.3       1 UNK         0.0824 
      6 C6         30.7681   22.4553    0.0358 C.3       12 UNK        -0.0944 
      7 S7         31.0776   21.2998    1.4113 S.3       12 UNK        -0.2672 
      8 C8         31.9127   22.3846    2.6171 C.3       12 UNK         0.0333 
      9 C9         30.9831   23.3658    3.3291 C.ar      12 UNK        -0.0807 
     10 C10        31.3596   24.7072    3.4645 C.ar      12 UNK        -0.0894 
     11 C11        30.5659   25.5994    4.1927 C.ar      12 UNK        -0.0804 
     12 C12        29.3937   25.1404    4.7969 C.ar      12 UNK        -0.0824 
     13 C13        28.9700   23.8219    4.6167 C.ar      12 UNK        -0.0762 
     14 C14        29.7780   22.9342    3.8979 C.ar      12 UNK        -0.0782 
     15 C15        27.6359   23.3618    5.1885 C.3       12 UNK         0.0230 
     16 S16        26.2837   23.5382    3.9745 S.3       12 UNK        -0.2608 
     17 C17        25.8464   25.3075    4.0910 C.3       12 UNK        -0.0989 
     18 CA         26.6085   26.2062    3.0779 C.3       5 UNK         0.0716 
     19 N          26.4164   25.8319    1.6769 N.am      5 UNK        -0.4135 
     20 C          25.4079   26.1325    0.8501 C.2       4 UNK         0.5031 
     21 O          24.3617   26.6812    1.2003 O.2       4 UNK        -0.5229 
     22 CA         25.6748   25.8139   -0.6406 C.3       4 UNK         0.0329 
     23 CB         24.7193   26.5558   -1.5984 C.3       4 UNK        -0.2001 
     24 N          27.0844   26.0527   -1.0058 N.am      4 UNK        -0.4303 
     25 C          27.7547   27.2093   -0.8647 C.2       3 UNK         0.5044 
     26 O          27.2182   28.2766   -0.5749 O.2       3 UNK        -0.5152 
     27 CA         29.2895   27.1677   -0.9460 C.3       3 UNK         0.0319 
     28 CB         29.8730   27.1031    0.4776 C.3       3 UNK        -0.2001 
     29 N          29.8186   26.0403   -1.7082 N.am      3 UNK        -0.4354 
     30 C          29.7761   25.9039   -3.0412 C.2       2 UNK         0.4964 
     31 O          29.2789   26.7348   -3.8012 O.2       2 UNK        -0.5047 
     32 CA         30.4033   24.6201   -3.6234 C.3       2 UNK         0.0288 
     33 CB         31.8039   24.9123   -4.1868 C.3       2 UNK        -0.2113 
     34 N          30.4976   23.5378   -2.6353 N.am      2 UNK        -0.4145 
     35 C          29.4360   22.8763   -2.1523 C.2       1 UNK         0.5006 
     36 O          28.3021   23.0095   -2.6234 O.2       1 UNK        -0.5103 
     37 C          26.4801   27.7187    3.3876 C.2       5 UNK         0.5055 
     38 O          26.1403   28.0716    4.5193 O.2       5 UNK        -0.5220 
     39 N          26.7866   28.6007    2.4226 N.am      6 UNK        -0.4450 
     40 CA         26.8878   30.0427    2.6577 C.3       6 UNK         0.0367 
     41 CB         26.8427   30.7997    1.3212 C.3       6 UNK        -0.1929 
     42 C          28.1859   30.3721    3.4101 C.2       6 UNK         0.5070 
     43 O          29.2632   29.9597    2.9749 O.2       6 UNK        -0.5237 
     44 N          28.0714   31.1498    4.4951 N.am      7 UNK        -0.4739 
     45 CA         29.1972   31.5895    5.3310 C.3       7 UNK         0.0276 
     46 CB         28.6556   32.2910    6.5863 C.3       7 UNK        -0.1927 
     47 C          30.2006   32.4982    4.5976 C.2       7 UNK         0.5013 
     48 O          31.3702   32.5401    4.9809 O.2       7 UNK        -0.5193 
     49 N          29.7425   33.1642    3.5266 N.am      8 UNK        -0.4253 
     50 CA         30.5341   34.0011    2.6183 C.3       8 UNK         0.0242 
     51 CB         29.5973   34.6213    1.5685 C.3       8 UNK        -0.2000 
     52 C          31.7039   33.2711    1.9282 C.2       8 UNK         0.4948 
     53 O          32.6403   33.9354    1.4832 O.2       8 UNK        -0.5275 
     54 N          31.6546   31.9311    1.8747 N.am      9 UNK        -0.4246 
     55 CA         32.7523   31.0747    1.4198 C.3       9 UNK         0.0261 
     56 CB         32.2002   29.6692    1.1412 C.3       9 UNK        -0.1959 
     57 C          33.9419   31.0093    2.4014 C.2       9 UNK         0.5033 
     58 O          35.0062   30.5363    2.0003 O.2       9 UNK        -0.5390 
     59 N          33.7545   31.4754    3.6486 N.am      10 UNK        -0.4215 
     60 CA         34.7480   31.5573    4.7275 C.3       10 UNK         0.0240 
     61 CB         35.8588   32.5708    4.3760 C.3       10 UNK        -0.1982 
     62 C          35.2953   30.1843    5.1660 C.2       10 UNK         0.4970 
     63 O          36.4901   30.0535    5.4411 O.2       10 UNK        -0.4916 
     64 N          34.4049   29.1872    5.2301 N.am      11 UNK        -0.4279 
     65 CA         34.6762   27.8440    5.7609 C.3       11 UNK         0.1003 
     66 C          34.9777   27.8302    7.2878 C.2       11 UNK         0.5709 
     67 N          35.6634   26.8030    7.7720 N.am      11 UNK        -0.7358 
     68 O          34.5808   28.7204    8.0387 O.2       11 UNK        -0.4999 
     69 C69        33.5522   26.8438    5.3770 C.3       12 UNK        -0.0954 
     70 S70        31.8728   27.4031    5.8365 S.3       12 UNK        -0.2268 
     71 C71        30.9468   27.0675    4.3090 C.3       12 UNK         0.0203 
     72 H72        25.8687   21.1875    0.2025 H         1 UNK         0.0888 
     73 H73        26.4552   21.4051    1.8566 H         1 UNK         0.0888 
     74 H74        25.5736   22.7055    1.0488 H         1 UNK         0.0888 
     75 H75        28.0965   20.6515   -0.3970 H         1 UNK         0.3017 
     76 H76        30.0342   20.9981   -1.3757 H         1 UNK         0.0873 
     77 H77        30.4913   23.4275    0.4472 H         1 UNK         0.0745 
     78 H78        31.7220   22.5954   -0.4743 H         1 UNK         0.0745 
     79 H79        32.3857   21.7567    3.3730 H         1 UNK         0.0705 
     80 H80        32.7219   22.9125    2.1100 H         1 UNK         0.0705 
     81 H81        32.2783   25.0562    3.0139 H         1 UNK         0.1334 
     82 H82        28.7812   25.8278    5.3647 H         1 UNK         0.1417 
     83 H83        29.4669   21.9054    3.7787 H         1 UNK         0.1562 
     84 H84        27.3956   23.9093    6.1011 H         1 UNK         0.0748 
     85 H85        27.7072   22.3124    5.4782 H         1 UNK         0.0748 
     86 H86        26.0286   25.6250    5.1191 H         1 UNK         0.0940 
     87 H87        24.7710   25.4069    3.9348 H         1 UNK         0.0940 
     88 H88        27.6684   26.0249    3.2118 H         1 UNK         0.0703 
     89 H89        27.1623   25.2606    1.2848 H         1 UNK         0.3081 
     90 H90        25.5025   24.7436   -0.7620 H         1 UNK         0.0719 
     91 H91        24.7895   27.6381   -1.4851 H         1 UNK         0.0809 
     92 H92        24.9340   26.3125   -2.6388 H         1 UNK         0.0809 
     93 H93        23.6824   26.2770   -1.4071 H         1 UNK         0.0809 
     94 H94        27.6265   25.2168   -1.1869 H         1 UNK         0.2990 
     95 H95        29.6247   28.0927   -1.4199 H         1 UNK         0.0690 
     96 H96        30.9626   27.1088    0.4623 H         1 UNK         0.0788 
     97 H97        29.5542   26.2040    1.0078 H         1 UNK         0.0788 
     98 H98        29.5540   27.9604    1.0722 H         1 UNK         0.0788 
     99 H99        30.2527   25.3055   -1.1713 H         1 UNK         0.2993 
    100 H100       29.7644   24.2870   -4.4446 H         1 UNK         0.0949 
    101 H101       32.2344   24.0285   -4.6583 H         1 UNK         0.0767 
    102 H102       31.7629   25.6945   -4.9463 H         1 UNK         0.0767 
    103 H103       32.4914   25.2487   -3.4096 H         1 UNK         0.0767 
    104 H104       31.4120   23.3555   -2.2470 H         1 UNK         0.3013 
    105 H105       27.0408   28.2774    1.4959 H         1 UNK         0.3121 
    106 H106       26.0294   30.3595    3.2542 H         1 UNK         0.0774 
    107 H107       26.8290   31.8781    1.4832 H         1 UNK         0.0815 
    108 H108       27.7116   30.5764    0.7005 H         1 UNK         0.0815 
    109 H109       25.9497   30.5452    0.7499 H         1 UNK         0.0815 
    110 H110       27.1499   31.4438    4.7878 H         1 UNK         0.2987 
    111 H111       29.7447   30.6975    5.6447 H         1 UNK         0.0949 
    112 H112       28.0774   33.1812    6.3352 H         1 UNK         0.0806 
    113 H113       28.0165   31.6267    7.1682 H         1 UNK         0.0806 
    114 H114       29.4709   32.6058    7.2396 H         1 UNK         0.0806 
    115 H115       28.7648   33.0560    3.3004 H         1 UNK         0.3010 
    116 H116       30.9676   34.8072    3.2139 H         1 UNK         0.0829 
    117 H117       28.8193   35.2253    2.0360 H         1 UNK         0.0813 
    118 H118       30.1479   35.2759    0.8912 H         1 UNK         0.0813 
    119 H119       29.1116   33.8574    0.9597 H         1 UNK         0.0813 
    120 H120       30.8408   31.4580    2.2505 H         1 UNK         0.3038 
    121 H121       33.1339   31.4811    0.4807 H         1 UNK         0.0769 
    122 H122       32.9850   28.9978    0.7901 H         1 UNK         0.0811 
    123 H123       31.4280   29.6954    0.3723 H         1 UNK         0.0811 
    124 H124       31.7655   29.2271    2.0371 H         1 UNK         0.0811 
    125 H125       32.8359   31.8357    3.8953 H         1 UNK         0.3204 
    126 H126       34.2135   31.9517    5.5931 H         1 UNK         0.0748 
    127 H127       36.5183   32.7402    5.2281 H         1 UNK         0.0771 
    128 H128       36.4790   32.2226    3.5495 H         1 UNK         0.0771 
    129 H129       35.4387   33.5369    4.0961 H         1 UNK         0.0771 
    130 H130       33.4383   29.3841    5.0201 H         1 UNK         0.2980 
    131 H131       35.5889   27.5011    5.2693 H         1 UNK         0.0545 
    132 H132       35.9890   26.0620    7.1710 H         1 UNK         0.3459 
    133 H133       35.8612   26.7696    8.7598 H         1 UNK         0.3459 
    134 H134       33.5907   26.6795    4.2998 H         1 UNK         0.0616 
    135 H135       33.7259   25.8638    5.8247 H         1 UNK         0.0616 
    136 H136       31.5244   27.3844    3.4407 H         1 UNK         0.0634 
    137 H137       30.0437   27.6797    4.3084 H         1 UNK         0.0634 
@<TRIPOS>BOND
     1    1    2 1    
     2    1   72 1    
     3    1   73 1    
     4    1   74 1    
     5    2    3 2    
     6    2    4 am   BACKBONE|DICT|INTERRES
     7    4    5 1    
     8    4   75 1    
     9    5    6 1    
    10    5   35 1    
    11    5   76 1    
    12    6    7 1    
    13    6   77 1    
    14    6   78 1    
    15    7    8 1    
    16    8    9 1    
    17    8   79 1    
    18    8   80 1    
    19    9   10 ar   
    20    9   14 ar   
    21   10   11 ar   
    22   10   81 1    
    23   11   12 ar   
    24   11   71 1    
    25   12   13 ar   
    26   12   82 1    
    27   13   14 ar   
    28   13   15 1    
    29   14   83 1    
    30   15   16 1    
    31   15   84 1    
    32   15   85 1    
    33   16   17 1    
    34   17   18 1    
    35   17   86 1    
    36   17   87 1    
    37   18   19 1    
    38   18   37 1    
    39   18   88 1    
    40   19   20 am   BACKBONE|DICT|INTERRES
    41   19   89 1    
    42   20   21 2    
    43   20   22 1    
    44   22   23 1    
    45   22   24 1    
    46   22   90 1    
    47   23   91 1    
    48   23   92 1    
    49   23   93 1    
    50   24   25 am   BACKBONE|DICT|INTERRES
    51   24   94 1    
    52   25   26 2    
    53   25   27 1    
    54   27   28 1    
    55   27   29 1    
    56   27   95 1    
    57   28   96 1    
    58   28   97 1    
    59   28   98 1    
    60   29   30 am   BACKBONE|DICT|INTERRES
    61   29   99 1    
    62   30   31 2    
    63   30   32 1    
    64   32   33 1    
    65   32   34 1    
    66   32  100 1    
    67   33  101 1    
    68   33  102 1    
    69   33  103 1    
    70   34   35 am   BACKBONE|DICT|INTERRES
    71   34  104 1    
    72   35   36 2    
    73   37   38 2    
    74   37   39 am   BACKBONE|DICT|INTERRES
    75   39   40 1    
    76   39  105 1    
    77   40   41 1    
    78   40   42 1    
    79   40  106 1    
    80   41  107 1    
    81   41  108 1    
    82   41  109 1    
    83   42   43 2    
    84   42   44 am   BACKBONE|DICT|INTERRES
    85   44   45 1    
    86   44  110 1    
    87   45   46 1    
    88   45   47 1    
    89   45  111 1    
    90   46  112 1    
    91   46  113 1    
    92   46  114 1    
    93   47   48 2    
    94   47   49 am   BACKBONE|DICT|INTERRES
    95   49   50 1    
    96   49  115 1    
    97   50   51 1    
    98   50   52 1    
    99   50  116 1    
   100   51  117 1    
   101   51  118 1    
   102   51  119 1    
   103   52   53 2    
   104   52   54 am   BACKBONE|DICT|INTERRES
   105   54   55 1    
   106   54  120 1    
   107   55   56 1    
   108   55   57 1    
   109   55  121 1    
   110   56  122 1    
   111   56  123 1    
   112   56  124 1    
   113   57   58 2    
   114   57   59 am   BACKBONE|DICT|INTERRES
   115   59   60 1    
   116   59  125 1    
   117   60   61 1    
   118   60   62 1    
   119   60  126 1    
   120   61  127 1    
   121   61  128 1    
   122   61  129 1    
   123   62   63 2    
   124   62   64 am   BACKBONE|DICT|INTERRES
   125   64   65 1    
   126   64  130 1    
   127   65   66 1    
   128   65   69 1    
   129   65  131 1    
   130   66   67 am   BACKBONE|DICT|INTERRES
   131   66   68 2    
   132   67  132 1    
   133   67  133 1    
   134   69   70 1    
   135   69  134 1    
   136   69  135 1    
   137   70   71 1    
   138   71  136 1    
   139   71  137 1    
@<TRIPOS>SUBSTRUCTURE
     1 UNK         1 GROUP             0       ****    0 ROOT    
