@<TRIPOS>MOLECULE
3R136
137   139    1
SMALL
USER_CHARGES


@<TRIPOS>ATOM
      1 CA         30.7359   30.3596   -2.8993 C.3       0 UNK        -0.1979 
      2 C          29.5715   29.7702   -2.1176 C.2       0 UNK         0.4864 
      3 O          28.5476   30.4344   -1.9487 O.2       0 UNK        -0.5359 
      4 N          29.7220   28.5323   -1.6309 N.am      1 UNK        -0.4318 
      5 CA         28.7160   27.8140   -0.8466 C.3       1 UNK         0.0824 
      6 C6         29.3444   26.6969    0.0215 C.3       12 UNK        -0.0944 
      7 S7         30.5186   27.3634    1.2466 S.3       12 UNK        -0.2672 
      8 C8         31.9902   26.3090    1.0454 C.3       12 UNK         0.0333 
      9 C9         32.2606   25.5235    2.3188 C.ar      12 UNK        -0.0807 
     10 C10        32.9790   26.1125    3.3627 C.ar      12 UNK        -0.0894 
     11 C11        33.2150   25.4072    4.5454 C.ar      12 UNK        -0.0804 
     12 C12        32.6940   24.1181    4.6926 C.ar      12 UNK        -0.0824 
     13 C13        31.9678   23.5150    3.6599 C.ar      12 UNK        -0.0762 
     14 C14        31.7895   24.2148    2.4595 C.ar      12 UNK        -0.0782 
     15 C15        31.4260   22.0990    3.8684 C.3       12 UNK         0.0230 
     16 S16        29.9008   21.6909    2.9447 S.3       12 UNK        -0.2608 
     17 C17        28.6905   22.8904    3.6025 C.3       12 UNK        -0.0989 
     18 CA         28.2926   23.9650    2.5582 C.3       5 UNK         0.0716 
     19 N          27.5724   23.4287    1.4058 N.am      5 UNK        -0.4135 
     20 C          28.0897   23.2183    0.1908 C.2       4 UNK         0.5031 
     21 O          29.2910   23.2910   -0.0686 O.2       4 UNK        -0.5229 
     22 CA         27.1038   22.9368   -0.9552 C.3       4 UNK         0.0329 
     23 CB         26.6543   21.4622   -0.9784 C.3       4 UNK        -0.2001 
     24 N          25.9745   23.8784   -0.9935 N.am      4 UNK        -0.4303 
     25 C          24.9199   23.9682   -0.1686 C.2       3 UNK         0.5044 
     26 O          24.7252   23.1858    0.7622 O.2       3 UNK        -0.5152 
     27 CA         23.9452   25.1465   -0.3831 C.3       3 UNK         0.0319 
     28 CB         23.3334   25.6309    0.9448 C.3       3 UNK        -0.2001 
     29 N          24.5828   26.2879   -1.0471 N.am      3 UNK        -0.4354 
     30 C          24.6085   26.5052   -2.3692 C.2       2 UNK         0.4964 
     31 O          24.0562   25.7770   -3.1935 O.2       2 UNK        -0.5047 
     32 CA         25.4187   27.7208   -2.8588 C.3       2 UNK         0.0288 
     33 CB         24.5087   28.9520   -2.9962 C.3       2 UNK        -0.2113 
     34 N          26.5663   28.0607   -2.0073 N.am      2 UNK        -0.4145 
     35 C          27.6163   27.2599   -1.7739 C.2       1 UNK         0.5006 
     36 O          27.7328   26.1329   -2.2599 O.2       1 UNK        -0.5103 
     37 C          27.3940   25.0473    3.1681 C.2       5 UNK         0.5055 
     38 O          26.1885   24.8308    3.3088 O.2       5 UNK        -0.5220 
     39 N          27.9878   26.1968    3.4948 N.am      6 UNK        -0.4450 
     40 CA         27.3236   27.3922    4.0004 C.3       6 UNK         0.0367 
     41 CB         26.6336   28.1354    2.8371 C.3       6 UNK        -0.1929 
     42 C          28.3835   28.2757    4.6684 C.2       6 UNK         0.5070 
     43 O          29.5727   27.9554    4.6153 O.2       6 UNK        -0.5237 
     44 N          27.9478   29.3941    5.2584 N.am      7 UNK        -0.4739 
     45 CA         28.8196   30.4271    5.8230 C.3       7 UNK         0.0276 
     46 CB         28.0319   31.2246    6.8791 C.3       7 UNK        -0.1927 
     47 C          29.4052   31.3241    4.7132 C.2       7 UNK         0.5013 
     48 O          29.0723   32.5087    4.6374 O.2       7 UNK        -0.5193 
     49 N          30.2370   30.7331    3.8502 N.am      8 UNK        -0.4253 
     50 CA         30.9087   31.3826    2.7295 C.3       8 UNK         0.0242 
     51 CB         30.0443   31.2454    1.4626 C.3       8 UNK        -0.2000 
     52 C          32.2973   30.7605    2.5400 C.2       8 UNK         0.4948 
     53 O          32.5895   29.7090    3.1172 O.2       8 UNK        -0.5275 
     54 N          33.1395   31.4377    1.7455 N.am      9 UNK        -0.4246 
     55 CA         34.5427   31.1001    1.4764 C.3       9 UNK         0.0261 
     56 CB         34.6344   29.8245    0.6055 C.3       9 UNK        -0.1959 
     57 C          35.3490   31.0394    2.7898 C.2       9 UNK         0.5033 
     58 O          35.3291   32.0130    3.5464 O.2       9 UNK        -0.5390 
     59 N          35.9945   29.8995    3.0712 N.am      10 UNK        -0.4215 
     60 CA         36.7176   29.6255    4.3182 C.3       10 UNK         0.0240 
     61 CB         37.4690   28.2910    4.1788 C.3       10 UNK        -0.1982 
     62 C          35.8285   29.6154    5.5790 C.2       10 UNK         0.4970 
     63 O          36.3534   29.8056    6.6766 O.2       10 UNK        -0.4916 
     64 N          34.5183   29.4029    5.4045 N.am      11 UNK        -0.4279 
     65 CA         33.4973   29.4632    6.4577 C.3       11 UNK         0.1003 
     66 C          32.8092   30.8583    6.5484 C.2       11 UNK         0.5709 
     67 N          33.2156   31.8679    5.7846 N.am      11 UNK        -0.7358 
     68 O          31.9020   31.0433    7.3554 O.2       11 UNK        -0.4999 
     69 C69        32.4806   28.2962    6.3009 C.3       12 UNK        -0.0954 
     70 S70        33.1008   26.7305    7.0036 S.3       12 UNK        -0.2268 
     71 C71        34.0752   26.0125    5.6444 C.3       12 UNK         0.0203 
     72 H72        31.0838   31.2738   -2.4192 H         1 UNK         0.0888 
     73 H73        31.5767   29.6689   -2.9616 H         1 UNK         0.0888 
     74 H74        30.4213   30.6046   -3.9133 H         1 UNK         0.0888 
     75 H75        30.5773   28.0260   -1.8082 H         1 UNK         0.3017 
     76 H76        28.2449   28.5248   -0.1642 H         1 UNK         0.0873 
     77 H77        29.8332   25.9508   -0.6066 H         1 UNK         0.0745 
     78 H78        28.5627   26.1712    0.5689 H         1 UNK         0.0745 
     79 H79        31.8816   25.6312    0.1982 H         1 UNK         0.0705 
     80 H80        32.8459   26.9445    0.8150 H         1 UNK         0.0705 
     81 H81        33.3550   27.1203    3.2505 H         1 UNK         0.1334 
     82 H82        32.8688   23.5784    5.6136 H         1 UNK         0.1417 
     83 H83        31.2613   23.7523    1.6372 H         1 UNK         0.1562 
     84 H84        31.2343   21.9251    4.9286 H         1 UNK         0.0748 
     85 H85        32.2024   21.3904    3.5775 H         1 UNK         0.0748 
     86 H86        29.1094   23.3608    4.4944 H         1 UNK         0.0940 
     87 H87        27.8090   22.3400    3.9371 H         1 UNK         0.0940 
     88 H88        29.1900   24.4702    2.2063 H         1 UNK         0.0703 
     89 H89        26.5623   23.3755    1.5143 H         1 UNK         0.3081 
     90 H90        27.6506   23.1182   -1.8823 H         1 UNK         0.0719 
     91 H91        25.9805   21.2657   -1.8123 H         1 UNK         0.0809 
     92 H92        26.1469   21.1694   -0.0591 H         1 UNK         0.0809 
     93 H93        27.5140   20.8007   -1.0926 H         1 UNK         0.0809 
     94 H94        26.0711   24.6052   -1.6916 H         1 UNK         0.2990 
     95 H95        23.1305   24.7724   -1.0064 H         1 UNK         0.0690 
     96 H96        22.6544   26.4693    0.7884 H         1 UNK         0.0788 
     97 H97        24.1015   25.9457    1.6521 H         1 UNK         0.0788 
     98 H98        22.7576   24.8382    1.4243 H         1 UNK         0.0788 
     99 H99        25.0706   26.9394   -0.4501 H         1 UNK         0.2993 
    100 H100       25.8080   27.4705   -3.8482 H         1 UNK         0.0949 
    101 H101       23.6595   28.7397   -3.6476 H         1 UNK         0.0767 
    102 H102       24.1091   29.2692   -2.0320 H         1 UNK         0.0767 
    103 H103       25.0453   29.7953   -3.4317 H         1 UNK         0.0767 
    104 H104       26.5913   29.0003   -1.6326 H         1 UNK         0.3013 
    105 H105       28.9949   26.3046    3.4182 H         1 UNK         0.3121 
    106 H106       26.5869   27.1057    4.7538 H         1 UNK         0.0774 
    107 H107       26.0795   29.0042    3.1932 H         1 UNK         0.0815 
    108 H108       27.3608   28.4901    2.1062 H         1 UNK         0.0815 
    109 H109       25.9207   27.4961    2.3178 H         1 UNK         0.0815 
    110 H110       26.9597   29.6027    5.2387 H         1 UNK         0.2987 
    111 H111       29.6573   29.9462    6.3313 H         1 UNK         0.0949 
    112 H112       28.6626   31.9884    7.3364 H         1 UNK         0.0806 
    113 H113       27.1672   31.7296    6.4467 H         1 UNK         0.0806 
    114 H114       27.6775   30.5775    7.6816 H         1 UNK         0.0806 
    115 H115       30.4719   29.7520    3.9815 H         1 UNK         0.3010 
    116 H116       31.0527   32.4409    2.9580 H         1 UNK         0.0829 
    117 H117       29.0729   31.7224    1.5934 H         1 UNK         0.0813 
    118 H118       30.5196   31.7148    0.6007 H         1 UNK         0.0813 
    119 H119       29.8675   30.2011    1.2077 H         1 UNK         0.0813 
    120 H120       32.8211   32.3099    1.3470 H         1 UNK         0.3038 
    121 H121       34.9599   31.9273    0.9003 H         1 UNK         0.0769 
    122 H122       35.6640   29.6172    0.3109 H         1 UNK         0.0811 
    123 H123       34.0613   29.9417   -0.3144 H         1 UNK         0.0811 
    124 H124       34.2462   28.9439    1.1180 H         1 UNK         0.0811 
    125 H125       35.9447   29.1471    2.3999 H         1 UNK         0.3204 
    126 H126       37.4545   30.4201    4.4534 H         1 UNK         0.0748 
    127 H127       38.0276   28.0592    5.0870 H         1 UNK         0.0771 
    128 H128       36.7880   27.4594    3.9940 H         1 UNK         0.0771 
    129 H129       38.1881   28.3244    3.3601 H         1 UNK         0.0771 
    130 H130       34.1469   29.3231    4.4643 H         1 UNK         0.2980 
    131 H131       33.9822   29.3459    7.4283 H         1 UNK         0.0545 
    132 H132       33.9746   31.7572    5.1234 H         1 UNK         0.3459 
    133 H133       32.7653   32.7630    5.8829 H         1 UNK         0.3459 
    134 H134       32.1957   28.1520    5.2586 H         1 UNK         0.0616 
    135 H135       31.5515   28.5077    6.8317 H         1 UNK         0.0616 
    136 H136       34.7515   26.7594    5.2326 H         1 UNK         0.0634 
    137 H137       34.7172   25.2352    6.0612 H         1 UNK         0.0634 
@<TRIPOS>BOND
     1    1    2 1    
     2    1   72 1    
     3    1   73 1    
     4    1   74 1    
     5    2    3 2    
     6    2    4 am   BACKBONE|DICT|INTERRES
     7    4    5 1    
     8    4   75 1    
     9    5    6 1    
    10    5   35 1    
    11    5   76 1    
    12    6    7 1    
    13    6   77 1    
    14    6   78 1    
    15    7    8 1    
    16    8    9 1    
    17    8   79 1    
    18    8   80 1    
    19    9   10 ar   
    20    9   14 ar   
    21   10   11 ar   
    22   10   81 1    
    23   11   12 ar   
    24   11   71 1    
    25   12   13 ar   
    26   12   82 1    
    27   13   14 ar   
    28   13   15 1    
    29   14   83 1    
    30   15   16 1    
    31   15   84 1    
    32   15   85 1    
    33   16   17 1    
    34   17   18 1    
    35   17   86 1    
    36   17   87 1    
    37   18   19 1    
    38   18   37 1    
    39   18   88 1    
    40   19   20 am   BACKBONE|DICT|INTERRES
    41   19   89 1    
    42   20   21 2    
    43   20   22 1    
    44   22   23 1    
    45   22   24 1    
    46   22   90 1    
    47   23   91 1    
    48   23   92 1    
    49   23   93 1    
    50   24   25 am   BACKBONE|DICT|INTERRES
    51   24   94 1    
    52   25   26 2    
    53   25   27 1    
    54   27   28 1    
    55   27   29 1    
    56   27   95 1    
    57   28   96 1    
    58   28   97 1    
    59   28   98 1    
    60   29   30 am   BACKBONE|DICT|INTERRES
    61   29   99 1    
    62   30   31 2    
    63   30   32 1    
    64   32   33 1    
    65   32   34 1    
    66   32  100 1    
    67   33  101 1    
    68   33  102 1    
    69   33  103 1    
    70   34   35 am   BACKBONE|DICT|INTERRES
    71   34  104 1    
    72   35   36 2    
    73   37   38 2    
    74   37   39 am   BACKBONE|DICT|INTERRES
    75   39   40 1    
    76   39  105 1    
    77   40   41 1    
    78   40   42 1    
    79   40  106 1    
    80   41  107 1    
    81   41  108 1    
    82   41  109 1    
    83   42   43 2    
    84   42   44 am   BACKBONE|DICT|INTERRES
    85   44   45 1    
    86   44  110 1    
    87   45   46 1    
    88   45   47 1    
    89   45  111 1    
    90   46  112 1    
    91   46  113 1    
    92   46  114 1    
    93   47   48 2    
    94   47   49 am   BACKBONE|DICT|INTERRES
    95   49   50 1    
    96   49  115 1    
    97   50   51 1    
    98   50   52 1    
    99   50  116 1    
   100   51  117 1    
   101   51  118 1    
   102   51  119 1    
   103   52   53 2    
   104   52   54 am   BACKBONE|DICT|INTERRES
   105   54   55 1    
   106   54  120 1    
   107   55   56 1    
   108   55   57 1    
   109   55  121 1    
   110   56  122 1    
   111   56  123 1    
   112   56  124 1    
   113   57   58 2    
   114   57   59 am   BACKBONE|DICT|INTERRES
   115   59   60 1    
   116   59  125 1    
   117   60   61 1    
   118   60   62 1    
   119   60  126 1    
   120   61  127 1    
   121   61  128 1    
   122   61  129 1    
   123   62   63 2    
   124   62   64 am   BACKBONE|DICT|INTERRES
   125   64   65 1    
   126   64  130 1    
   127   65   66 1    
   128   65   69 1    
   129   65  131 1    
   130   66   67 am   BACKBONE|DICT|INTERRES
   131   66   68 2    
   132   67  132 1    
   133   67  133 1    
   134   69   70 1    
   135   69  134 1    
   136   69  135 1    
   137   70   71 1    
   138   71  136 1    
   139   71  137 1    
@<TRIPOS>SUBSTRUCTURE
     1 UNK         1 GROUP             0       ****    0 ROOT    
