@<TRIPOS>MOLECULE
3R136
137   139    1
SMALL
USER_CHARGES


@<TRIPOS>ATOM
      1 CA         25.3479   23.9003   -0.3356 C.3       0 UNK        -0.1979 
      2 C          26.7667   23.9584   -0.8818 C.2       0 UNK         0.4864 
      3 O          27.0838   24.8492   -1.6718 O.2       0 UNK        -0.5359 
      4 N          27.6171   23.0034   -0.4845 N.am      1 UNK        -0.4318 
      5 CA         29.0094   22.8912   -0.9271 C.3       1 UNK         0.0824 
      6 C6         29.6207   21.4944   -0.6383 C.3       12 UNK        -0.0944 
      7 S7         29.3228   20.8341    1.0390 S.3       12 UNK        -0.2672 
      8 C8         30.9456   21.0261    1.8633 C.3       12 UNK         0.0333 
      9 C9         31.0402   22.2195    2.8146 C.ar      12 UNK        -0.0807 
     10 C10        32.2802   22.8301    3.0314 C.ar      12 UNK        -0.0894 
     11 C11        32.4098   23.8762    3.9504 C.ar      12 UNK        -0.0804 
     12 C12        31.2820   24.3248    4.6423 C.ar      12 UNK        -0.0824 
     13 C13        30.0309   23.7355    4.4377 C.ar      12 UNK        -0.0762 
     14 C14        29.9269   22.6702    3.5347 C.ar      12 UNK        -0.0782 
     15 C15        28.8437   24.2543    5.2524 C.3       12 UNK         0.0230 
     16 S16        27.1862   23.6562    4.7572 S.3       12 UNK        -0.2608 
     17 C17        26.9172   24.4515    3.1357 C.3       12 UNK        -0.0989 
     18 CA         26.7880   25.9959    3.2455 C.3       5 UNK         0.0716 
     19 N          28.0512   26.6581    2.9108 N.am      5 UNK        -0.4135 
     20 C          28.4521   27.8156    3.4512 C.2       4 UNK         0.5031 
     21 O          27.8259   28.4253    4.3171 O.2       4 UNK        -0.5229 
     22 CA         29.7655   28.4078    2.9222 C.3       4 UNK         0.0329 
     23 CB         30.9609   27.8193    3.6842 C.3       4 UNK        -0.2001 
     24 N          29.9614   28.2322    1.4804 N.am      4 UNK        -0.4303 
     25 C          29.1411   28.6673    0.5152 C.2       3 UNK         0.5044 
     26 O          28.0987   29.2779    0.7494 O.2       3 UNK        -0.5152 
     27 CA         29.4788   28.3239   -0.9511 C.3       3 UNK         0.0319 
     28 CB         30.1227   29.5156   -1.6844 C.3       3 UNK        -0.2001 
     29 N          30.2466   27.0856   -1.1482 N.am      3 UNK        -0.4354 
     30 C          31.4915   26.7898   -0.7429 C.2       2 UNK         0.4964 
     31 O          32.2259   27.5953   -0.1717 O.2       2 UNK        -0.5047 
     32 CA         31.9902   25.3476   -0.9692 C.3       2 UNK         0.0288 
     33 CB         32.9046   24.8734    0.1768 C.3       2 UNK        -0.2113 
     34 N          30.9328   24.3537   -1.2041 N.am      2 UNK        -0.4145 
     35 C          29.8976   24.0395   -0.4068 C.2       1 UNK         0.5006 
     36 O          29.6295   24.6130    0.6538 O.2       1 UNK        -0.5103 
     37 C          25.6016   26.5499    2.4238 C.2       5 UNK         0.5055 
     38 O          24.4577   26.2630    2.7798 O.2       5 UNK        -0.5220 
     39 N          25.8638   27.3164    1.3535 N.am      6 UNK        -0.4450 
     40 CA         24.8327   27.9566    0.5322 C.3       6 UNK         0.0367 
     41 CB         25.3051   28.0525   -0.9281 C.3       6 UNK        -0.1929 
     42 C          24.4718   29.3473    1.0747 C.2       6 UNK         0.5070 
     43 O          23.2878   29.6768    1.1518 O.2       6 UNK        -0.5237 
     44 N          25.4911   30.1334    1.4401 N.am      7 UNK        -0.4739 
     45 CA         25.3590   31.4837    1.9768 C.3       7 UNK         0.0276 
     46 CB         25.3671   32.5142    0.8294 C.3       7 UNK        -0.1927 
     47 C          26.4624   31.7230    3.0129 C.2       7 UNK         0.5013 
     48 O          26.1972   31.6113    4.2103 O.2       7 UNK        -0.5193 
     49 N          27.6722   32.0422    2.5403 N.am      8 UNK        -0.4253 
     50 CA         28.8655   32.2964    3.3413 C.3       8 UNK         0.0242 
     51 CB         28.7770   33.6741    4.0264 C.3       8 UNK        -0.2000 
     52 C          30.0861   32.2319    2.4173 C.2       8 UNK         0.4948 
     53 O          29.9724   32.5814    1.2395 O.2       8 UNK        -0.5275 
     54 N          31.2260   31.8115    2.9739 N.am      9 UNK        -0.4246 
     55 CA         32.5342   31.7243    2.3299 C.3       9 UNK         0.0261 
     56 CB         32.5589   30.6223    1.2537 C.3       9 UNK        -0.1959 
     57 C          33.5803   31.4580    3.4192 C.2       9 UNK         0.5033 
     58 O          33.2136   31.1846    4.5669 O.2       9 UNK        -0.5390 
     59 N          34.8614   31.5379    3.0367 N.am      10 UNK        -0.4215 
     60 CA         36.0312   31.4686    3.9203 C.3       10 UNK         0.0240 
     61 CB         37.3081   31.6423    3.0810 C.3       10 UNK        -0.1982 
     62 C          36.1391   30.2081    4.7986 C.2       10 UNK         0.4970 
     63 O          36.6996   30.3023    5.8917 O.2       10 UNK        -0.4916 
     64 N          35.6146   29.0676    4.3270 N.am      11 UNK        -0.4279 
     65 CA         35.5657   27.8159    5.0998 C.3       11 UNK         0.1003 
     66 C          34.4425   27.7611    6.1804 C.2       11 UNK         0.5709 
     67 N          33.5332   28.7279    6.2548 N.am      11 UNK        -0.7358 
     68 O          34.4113   26.8312    6.9829 O.2       11 UNK        -0.4999 
     69 C69        35.6335   26.5605    4.1843 C.3       12 UNK        -0.0954 
     70 S70        34.0606   26.0606    3.3990 S.3       12 UNK        -0.2268 
     71 C71        33.7751   24.4776    4.2538 C.3       12 UNK         0.0203 
     72 H72        25.2517   23.1770    0.4737 H         1 UNK         0.0888 
     73 H73        25.0444   24.8751    0.0409 H         1 UNK         0.0888 
     74 H74        24.6565   23.6165   -1.1283 H         1 UNK         0.0888 
     75 H75        27.3255   22.3069    0.1864 H         1 UNK         0.3017 
     76 H76        28.9835   22.9973   -2.0144 H         1 UNK         0.0873 
     77 H77        29.1750   20.7769   -1.3291 H         1 UNK         0.0745 
     78 H78        30.6871   21.4731   -0.8694 H         1 UNK         0.0745 
     79 H79        31.7380   21.0728    1.1155 H         1 UNK         0.0705 
     80 H80        31.1341   20.1233    2.4452 H         1 UNK         0.0705 
     81 H81        33.1539   22.4738    2.5029 H         1 UNK         0.1334 
     82 H82        31.3861   25.1291    5.3583 H         1 UNK         0.1417 
     83 H83        28.9778   22.1759    3.3958 H         1 UNK         0.1562 
     84 H84        28.8431   25.3444    5.2459 H         1 UNK         0.0748 
     85 H85        29.0007   23.9622    6.2914 H         1 UNK         0.0748 
     86 H86        26.0088   23.9989    2.7336 H         1 UNK         0.0940 
     87 H87        27.7097   24.1593    2.4455 H         1 UNK         0.0940 
     88 H88        26.5358   26.2414    4.2797 H         1 UNK         0.0703 
     89 H89        28.6406   26.2026    2.2239 H         1 UNK         0.3081 
     90 H90        29.7304   29.4764    3.1202 H         1 UNK         0.0719 
     91 H91        30.7948   27.8359    4.7623 H         1 UNK         0.0809 
     92 H92        31.8757   28.3800    3.4986 H         1 UNK         0.0809 
     93 H93        31.1397   26.7848    3.3937 H         1 UNK         0.0809 
     94 H94        30.8215   27.7841    1.1811 H         1 UNK         0.2990 
     95 H95        28.5178   28.1379   -1.4323 H         1 UNK         0.0690 
     96 H96        30.1222   29.3566   -2.7626 H         1 UNK         0.0788 
     97 H97        31.1543   29.6814   -1.3786 H         1 UNK         0.0788 
     98 H98        29.5732   30.4387   -1.4932 H         1 UNK         0.0788 
     99 H99        29.7206   26.3309   -1.5672 H         1 UNK         0.2993 
    100 H100       32.5895   25.3802   -1.8803 H         1 UNK         0.0949 
    101 H101       33.2513   23.8523    0.0191 H         1 UNK         0.0767 
    102 H102       33.7889   25.5055    0.2666 H         1 UNK         0.0767 
    103 H103       32.3826   24.9080    1.1330 H         1 UNK         0.0767 
    104 H104       31.0306   23.8362   -2.0671 H         1 UNK         0.3013 
    105 H105       26.8212   27.5769    1.1589 H         1 UNK         0.3121 
    106 H106       23.9269   27.3462    0.5438 H         1 UNK         0.0774 
    107 H107       24.5186   28.4654   -1.5609 H         1 UNK         0.0815 
    108 H108       26.1758   28.6986   -1.0365 H         1 UNK         0.0815 
    109 H109       25.5607   27.0728   -1.3303 H         1 UNK         0.0815 
    110 H110       26.4443   29.7910    1.3260 H         1 UNK         0.2987 
    111 H111       24.4084   31.5746    2.5079 H         1 UNK         0.0949 
    112 H112       24.4774   32.4121    0.2079 H         1 UNK         0.0806 
    113 H113       25.3732   33.5336    1.2176 H         1 UNK         0.0806 
    114 H114       26.2355   32.4011    0.1796 H         1 UNK         0.0806 
    115 H115       27.8322   32.0757    1.5404 H         1 UNK         0.3010 
    116 H116       28.9496   31.5164    4.1012 H         1 UNK         0.0829 
    117 H117       27.9381   33.7246    4.7205 H         1 UNK         0.0813 
    118 H118       29.6804   33.8852    4.6000 H         1 UNK         0.0813 
    119 H119       28.6572   34.4769    3.2978 H         1 UNK         0.0813 
    120 H120       31.2618   31.5806    3.9610 H         1 UNK         0.3038 
    121 H121       32.7538   32.6901    1.8703 H         1 UNK         0.0769 
    122 H122       32.4225   29.6315    1.6826 H         1 UNK         0.0811 
    123 H123       33.5063   30.6109    0.7146 H         1 UNK         0.0811 
    124 H124       31.7777   30.7737    0.5120 H         1 UNK         0.0811 
    125 H125       35.0540   31.7493    2.0679 H         1 UNK         0.3204 
    126 H126       35.9589   32.3186    4.6021 H         1 UNK         0.0748 
    127 H127       38.1978   31.6239    3.7124 H         1 UNK         0.0771 
    128 H128       37.4167   30.8469    2.3425 H         1 UNK         0.0771 
    129 H129       37.3111   32.5959    2.5524 H         1 UNK         0.0771 
    130 H130       35.1515   29.0650    3.4309 H         1 UNK         0.2980 
    131 H131       36.4894   27.7828    5.6811 H         1 UNK         0.0545 
    132 H132       33.5496   29.5185    5.6194 H         1 UNK         0.3459 
    133 H133       32.8263   28.6778    6.9697 H         1 UNK         0.3459 
    134 H134       36.3688   26.7165    3.3935 H         1 UNK         0.0616 
    135 H135       36.0196   25.7200    4.7634 H         1 UNK         0.0616 
    136 H136       33.8651   24.6294    5.3304 H         1 UNK         0.0634 
    137 H137       34.5660   23.7788    3.9770 H         1 UNK         0.0634 
@<TRIPOS>BOND
     1    1    2 1    
     2    1   72 1    
     3    1   73 1    
     4    1   74 1    
     5    2    3 2    
     6    2    4 am   BACKBONE|DICT|INTERRES
     7    4    5 1    
     8    4   75 1    
     9    5    6 1    
    10    5   35 1    
    11    5   76 1    
    12    6    7 1    
    13    6   77 1    
    14    6   78 1    
    15    7    8 1    
    16    8    9 1    
    17    8   79 1    
    18    8   80 1    
    19    9   10 ar   
    20    9   14 ar   
    21   10   11 ar   
    22   10   81 1    
    23   11   12 ar   
    24   11   71 1    
    25   12   13 ar   
    26   12   82 1    
    27   13   14 ar   
    28   13   15 1    
    29   14   83 1    
    30   15   16 1    
    31   15   84 1    
    32   15   85 1    
    33   16   17 1    
    34   17   18 1    
    35   17   86 1    
    36   17   87 1    
    37   18   19 1    
    38   18   37 1    
    39   18   88 1    
    40   19   20 am   BACKBONE|DICT|INTERRES
    41   19   89 1    
    42   20   21 2    
    43   20   22 1    
    44   22   23 1    
    45   22   24 1    
    46   22   90 1    
    47   23   91 1    
    48   23   92 1    
    49   23   93 1    
    50   24   25 am   BACKBONE|DICT|INTERRES
    51   24   94 1    
    52   25   26 2    
    53   25   27 1    
    54   27   28 1    
    55   27   29 1    
    56   27   95 1    
    57   28   96 1    
    58   28   97 1    
    59   28   98 1    
    60   29   30 am   BACKBONE|DICT|INTERRES
    61   29   99 1    
    62   30   31 2    
    63   30   32 1    
    64   32   33 1    
    65   32   34 1    
    66   32  100 1    
    67   33  101 1    
    68   33  102 1    
    69   33  103 1    
    70   34   35 am   BACKBONE|DICT|INTERRES
    71   34  104 1    
    72   35   36 2    
    73   37   38 2    
    74   37   39 am   BACKBONE|DICT|INTERRES
    75   39   40 1    
    76   39  105 1    
    77   40   41 1    
    78   40   42 1    
    79   40  106 1    
    80   41  107 1    
    81   41  108 1    
    82   41  109 1    
    83   42   43 2    
    84   42   44 am   BACKBONE|DICT|INTERRES
    85   44   45 1    
    86   44  110 1    
    87   45   46 1    
    88   45   47 1    
    89   45  111 1    
    90   46  112 1    
    91   46  113 1    
    92   46  114 1    
    93   47   48 2    
    94   47   49 am   BACKBONE|DICT|INTERRES
    95   49   50 1    
    96   49  115 1    
    97   50   51 1    
    98   50   52 1    
    99   50  116 1    
   100   51  117 1    
   101   51  118 1    
   102   51  119 1    
   103   52   53 2    
   104   52   54 am   BACKBONE|DICT|INTERRES
   105   54   55 1    
   106   54  120 1    
   107   55   56 1    
   108   55   57 1    
   109   55  121 1    
   110   56  122 1    
   111   56  123 1    
   112   56  124 1    
   113   57   58 2    
   114   57   59 am   BACKBONE|DICT|INTERRES
   115   59   60 1    
   116   59  125 1    
   117   60   61 1    
   118   60   62 1    
   119   60  126 1    
   120   61  127 1    
   121   61  128 1    
   122   61  129 1    
   123   62   63 2    
   124   62   64 am   BACKBONE|DICT|INTERRES
   125   64   65 1    
   126   64  130 1    
   127   65   66 1    
   128   65   69 1    
   129   65  131 1    
   130   66   67 am   BACKBONE|DICT|INTERRES
   131   66   68 2    
   132   67  132 1    
   133   67  133 1    
   134   69   70 1    
   135   69  134 1    
   136   69  135 1    
   137   70   71 1    
   138   71  136 1    
   139   71  137 1    
@<TRIPOS>SUBSTRUCTURE
     1 UNK         1 GROUP             0       ****    0 ROOT    
