@<TRIPOS>MOLECULE
3R136
137   139    1
SMALL
USER_CHARGES


@<TRIPOS>ATOM
      1 CA         29.3275   18.2625    1.9251 C.3       0 UNK        -0.1979 
      2 C          29.8870   19.4043    1.0890 C.2       0 UNK         0.4864 
      3 O          31.1059   19.5619    1.0068 O.2       0 UNK        -0.5359 
      4 N          29.0076   20.1963    0.4678 N.am      1 UNK        -0.4318 
      5 CA         29.3396   21.3257   -0.3967 C.3       1 UNK         0.0824 
      6 C6         29.6403   22.6070    0.4243 C.3       12 UNK        -0.0944 
      7 S7         30.4951   23.9021   -0.5376 S.3       12 UNK        -0.2672 
      8 C8         30.2869   25.3576    0.5405 C.3       12 UNK         0.0333 
      9 C9         30.9032   25.1426    1.9143 C.ar      12 UNK        -0.0807 
     10 C10        32.2827   25.2647    2.0924 C.ar      12 UNK        -0.0894 
     11 C11        32.8562   25.0511    3.3484 C.ar      12 UNK        -0.0804 
     12 C12        32.0378   24.7196    4.4312 C.ar      12 UNK        -0.0824 
     13 C13        30.6521   24.6097    4.2745 C.ar      12 UNK        -0.0762 
     14 C14        30.0940   24.8132    3.0055 C.ar      12 UNK        -0.0782 
     15 C15        29.8027   24.2192    5.4838 C.3       12 UNK         0.0230 
     16 S16        28.0761   24.8111    5.4451 S.3       12 UNK        -0.2608 
     17 C17        28.2500   26.6033    5.7661 C.3       12 UNK        -0.0989 
     18 CA         28.1386   27.4913    4.4942 C.3       5 UNK         0.0716 
     19 N          26.9943   27.1026    3.6549 N.am      5 UNK        -0.4135 
     20 C          26.8665   27.3361    2.3438 C.2       4 UNK         0.5031 
     21 O          27.7089   27.9404    1.6736 O.2       4 UNK        -0.5229 
     22 CA         25.5439   26.8910    1.6961 C.3       4 UNK         0.0329 
     23 CB         24.4504   27.9438    1.9444 C.3       4 UNK        -0.2001 
     24 N          25.6993   26.7027    0.2530 N.am      4 UNK        -0.4303 
     25 C          26.3562   25.6786   -0.3028 C.2       3 UNK         0.5044 
     26 O          26.7694   24.7061    0.3333 O.2       3 UNK        -0.5152 
     27 CA         26.6086   25.7807   -1.8145 C.3       3 UNK         0.0319 
     28 CB         27.5835   26.9305   -2.1293 C.3       3 UNK        -0.2001 
     29 N          27.1978   24.5355   -2.2998 N.am      3 UNK        -0.4354 
     30 C          26.6907   23.7382   -3.2472 C.2       2 UNK         0.4964 
     31 O          25.6599   23.9870   -3.8741 O.2       2 UNK        -0.5047 
     32 CA         27.4687   22.4471   -3.5701 C.3       2 UNK         0.0288 
     33 CB         28.1822   22.5756   -4.9268 C.3       2 UNK        -0.2113 
     34 N          28.4589   22.0970   -2.5466 N.am      2 UNK        -0.4145 
     35 C          28.1684   21.5157   -1.3757 C.2       1 UNK         0.5006 
     36 O          27.0347   21.1452   -1.0547 O.2       1 UNK        -0.5103 
     37 C          28.0853   29.0039    4.8354 C.2       5 UNK         0.5055 
     38 O          28.1227   29.3824    6.0083 O.2       5 UNK        -0.5220 
     39 N          27.9180   29.8373    3.8025 N.am      6 UNK        -0.4450 
     40 CA         27.7271   31.2841    3.8781 C.3       6 UNK         0.0367 
     41 CB         26.9075   31.7187    2.6496 C.3       6 UNK        -0.1929 
     42 C          29.0675   32.0309    3.9232 C.2       6 UNK         0.5070 
     43 O          30.1211   31.4348    3.6943 O.2       6 UNK        -0.5237 
     44 N          29.0038   33.3512    4.1435 N.am      7 UNK        -0.4739 
     45 CA         30.1534   34.2682    4.1753 C.3       7 UNK         0.0276 
     46 CB         29.6610   35.6805    4.5297 C.3       7 UNK        -0.1927 
     47 C          30.9934   34.3019    2.8817 C.2       7 UNK         0.5013 
     48 O          32.1718   34.6514    2.9430 O.2       7 UNK        -0.5193 
     49 N          30.3891   33.9135    1.7487 N.am      8 UNK        -0.4253 
     50 CA         31.0658   33.7044    0.4660 C.3       8 UNK         0.0242 
     51 CB         30.0144   33.5310   -0.6421 C.3       8 UNK        -0.2000 
     52 C          32.0350   32.5062    0.4842 C.2       8 UNK         0.4948 
     53 O          33.0744   32.5681   -0.1735 O.2       8 UNK        -0.5275 
     54 N          31.6899   31.4520    1.2383 N.am      9 UNK        -0.4246 
     55 CA         32.5650   30.3110    1.5165 C.3       9 UNK         0.0261 
     56 CB         31.7160   29.0499    1.7592 C.3       9 UNK        -0.1959 
     57 C          33.4645   30.5933    2.7302 C.2       9 UNK         0.5033 
     58 O          34.6171   30.1625    2.7410 O.2       9 UNK        -0.5390 
     59 N          32.9160   31.2984    3.7308 N.am      10 UNK        -0.4215 
     60 CA         33.4912   31.6939    5.0231 C.3       10 UNK         0.0240 
     61 CB         34.8157   32.4667    4.8698 C.3       10 UNK        -0.1982 
     62 C          33.6147   30.5259    6.0141 C.2       10 UNK         0.4970 
     63 O          33.2644   30.6958    7.1827 O.2       10 UNK        -0.4916 
     64 N          34.0697   29.3628    5.5372 N.am      11 UNK        -0.4279 
     65 CA         33.9703   28.0752    6.2341 C.3       11 UNK         0.1003 
     66 C          32.5038   27.5757    6.3689 C.2       11 UNK         0.5709 
     67 N          32.2369   26.7182    7.3460 N.am      11 UNK        -0.7358 
     68 O          31.6154   27.9449    5.6035 O.2       11 UNK        -0.4999 
     69 C69        34.9200   27.0058    5.6256 C.3       12 UNK        -0.0954 
     70 S70        34.8859   26.8754    3.8015 S.3       12 UNK        -0.2268 
     71 C71        34.3626   25.1565    3.5207 C.3       12 UNK         0.0203 
     72 H72        28.2379   18.2426    1.9104 H         1 UNK         0.0888 
     73 H73        29.6893   17.3071    1.5461 H         1 UNK         0.0888 
     74 H74        29.6504   18.3633    2.9610 H         1 UNK         0.0888 
     75 H75        28.0129   20.0095    0.5194 H         1 UNK         0.3017 
     76 H76        30.2225   21.0546   -0.9805 H         1 UNK         0.0873 
     77 H77        28.7276   23.0111    0.8653 H         1 UNK         0.0745 
     78 H78        30.2922   22.3604    1.2640 H         1 UNK         0.0745 
     79 H79        30.7524   26.2211    0.0633 H         1 UNK         0.0705 
     80 H80        29.2286   25.6000    0.6326 H         1 UNK         0.0705 
     81 H81        32.9116   25.5161    1.2492 H         1 UNK         0.1334 
     82 H82        32.4837   24.5473    5.4011 H         1 UNK         0.1417 
     83 H83        29.0282   24.7092    2.8565 H         1 UNK         0.1562 
     84 H84        30.2701   24.5683    6.4054 H         1 UNK         0.0748 
     85 H85        29.7859   23.1304    5.5440 H         1 UNK         0.0748 
     86 H86        27.4720   26.8696    6.4843 H         1 UNK         0.0940 
     87 H87        29.1983   26.7924    6.2716 H         1 UNK         0.0940 
     88 H88        29.0514   27.3409    3.9133 H         1 UNK         0.0703 
     89 H89        26.2476   26.6248    4.1380 H         1 UNK         0.3081 
     90 H90        25.2337   25.9437    2.1430 H         1 UNK         0.0719 
     91 H91        24.2781   28.0894    3.0117 H         1 UNK         0.0809 
     92 H92        24.7204   28.9138    1.5242 H         1 UNK         0.0809 
     93 H93        23.5002   27.6403    1.5045 H         1 UNK         0.0809 
     94 H94        25.4248   27.4774   -0.3330 H         1 UNK         0.2990 
     95 H95        25.6519   25.9741   -2.3040 H         1 UNK         0.0690 
     96 H96        27.7856   26.9943   -3.1987 H         1 UNK         0.0788 
     97 H97        28.5380   26.8017   -1.6172 H         1 UNK         0.0788 
     98 H98        27.1777   27.8949   -1.8217 H         1 UNK         0.0788 
     99 H99        28.0003   24.2100   -1.7786 H         1 UNK         0.2993 
    100 H100       26.7380   21.6383   -3.6428 H         1 UNK         0.0949 
    101 H101       28.6859   21.6480   -5.1998 H         1 UNK         0.0767 
    102 H102       27.4710   22.8018   -5.7227 H         1 UNK         0.0767 
    103 H103       28.9261   23.3734   -4.9182 H         1 UNK         0.0767 
    104 H104       29.4134   22.3781   -2.7253 H         1 UNK         0.3013 
    105 H105       27.9342   29.4240    2.8739 H         1 UNK         0.3121 
    106 H106       27.1675   31.5265    4.7842 H         1 UNK         0.0774 
    107 H107       27.4397   31.5210    1.7179 H         1 UNK         0.0815 
    108 H108       25.9546   31.1906    2.6053 H         1 UNK         0.0815 
    109 H109       26.6780   32.7845    2.6765 H         1 UNK         0.0815 
    110 H110       28.0981   33.7671    4.3108 H         1 UNK         0.2987 
    111 H111       30.8167   33.9288    4.9735 H         1 UNK         0.0949 
    112 H112       29.1591   35.6960    5.4974 H         1 UNK         0.0806 
    113 H113       30.4948   36.3817    4.5900 H         1 UNK         0.0806 
    114 H114       28.9656   36.0653    3.7826 H         1 UNK         0.0806 
    115 H115       29.4102   33.6729    1.7954 H         1 UNK         0.3010 
    116 H116       31.6520   34.5993    0.2455 H         1 UNK         0.0829 
    117 H117       29.3807   32.6603   -0.4679 H         1 UNK         0.0813 
    118 H118       30.4920   33.3966   -1.6138 H         1 UNK         0.0813 
    119 H119       29.3698   34.4069   -0.7189 H         1 UNK         0.0813 
    120 H120       30.8423   31.5047    1.7915 H         1 UNK         0.3038 
    121 H121       33.2083   30.1254    0.6537 H         1 UNK         0.0769 
    122 H122       31.0926   28.8152    0.8965 H         1 UNK         0.0811 
    123 H123       31.0617   29.1541    2.6259 H         1 UNK         0.0811 
    124 H124       32.3545   28.1853    1.9447 H         1 UNK         0.0811 
    125 H125       31.9150   31.4774    3.6529 H         1 UNK         0.3204 
    126 H126       32.7653   32.3857    5.4530 H         1 UNK         0.0748 
    127 H127       35.6196   31.8357    4.4904 H         1 UNK         0.0771 
    128 H128       34.7017   33.3122    4.1909 H         1 UNK         0.0771 
    129 H129       35.1446   32.8632    5.8311 H         1 UNK         0.0771 
    130 H130       34.3328   29.3196    4.5582 H         1 UNK         0.2980 
    131 H131       34.3174   28.2539    7.2538 H         1 UNK         0.0545 
    132 H132       32.9543   26.4160    7.9862 H         1 UNK         0.3459 
    133 H133       31.2918   26.3948    7.4653 H         1 UNK         0.3459 
    134 H134       34.7423   26.0286    6.0770 H         1 UNK         0.0616 
    135 H135       35.9459   27.2595    5.8959 H         1 UNK         0.0616 
    136 H136       34.8548   24.7914    2.6181 H         1 UNK         0.0634 
    137 H137       34.7096   24.5125    4.3297 H         1 UNK         0.0634 
@<TRIPOS>BOND
     1    1    2 1    
     2    1   72 1    
     3    1   73 1    
     4    1   74 1    
     5    2    3 2    
     6    2    4 am   BACKBONE|DICT|INTERRES
     7    4    5 1    
     8    4   75 1    
     9    5    6 1    
    10    5   35 1    
    11    5   76 1    
    12    6    7 1    
    13    6   77 1    
    14    6   78 1    
    15    7    8 1    
    16    8    9 1    
    17    8   79 1    
    18    8   80 1    
    19    9   10 ar   
    20    9   14 ar   
    21   10   11 ar   
    22   10   81 1    
    23   11   12 ar   
    24   11   71 1    
    25   12   13 ar   
    26   12   82 1    
    27   13   14 ar   
    28   13   15 1    
    29   14   83 1    
    30   15   16 1    
    31   15   84 1    
    32   15   85 1    
    33   16   17 1    
    34   17   18 1    
    35   17   86 1    
    36   17   87 1    
    37   18   19 1    
    38   18   37 1    
    39   18   88 1    
    40   19   20 am   BACKBONE|DICT|INTERRES
    41   19   89 1    
    42   20   21 2    
    43   20   22 1    
    44   22   23 1    
    45   22   24 1    
    46   22   90 1    
    47   23   91 1    
    48   23   92 1    
    49   23   93 1    
    50   24   25 am   BACKBONE|DICT|INTERRES
    51   24   94 1    
    52   25   26 2    
    53   25   27 1    
    54   27   28 1    
    55   27   29 1    
    56   27   95 1    
    57   28   96 1    
    58   28   97 1    
    59   28   98 1    
    60   29   30 am   BACKBONE|DICT|INTERRES
    61   29   99 1    
    62   30   31 2    
    63   30   32 1    
    64   32   33 1    
    65   32   34 1    
    66   32  100 1    
    67   33  101 1    
    68   33  102 1    
    69   33  103 1    
    70   34   35 am   BACKBONE|DICT|INTERRES
    71   34  104 1    
    72   35   36 2    
    73   37   38 2    
    74   37   39 am   BACKBONE|DICT|INTERRES
    75   39   40 1    
    76   39  105 1    
    77   40   41 1    
    78   40   42 1    
    79   40  106 1    
    80   41  107 1    
    81   41  108 1    
    82   41  109 1    
    83   42   43 2    
    84   42   44 am   BACKBONE|DICT|INTERRES
    85   44   45 1    
    86   44  110 1    
    87   45   46 1    
    88   45   47 1    
    89   45  111 1    
    90   46  112 1    
    91   46  113 1    
    92   46  114 1    
    93   47   48 2    
    94   47   49 am   BACKBONE|DICT|INTERRES
    95   49   50 1    
    96   49  115 1    
    97   50   51 1    
    98   50   52 1    
    99   50  116 1    
   100   51  117 1    
   101   51  118 1    
   102   51  119 1    
   103   52   53 2    
   104   52   54 am   BACKBONE|DICT|INTERRES
   105   54   55 1    
   106   54  120 1    
   107   55   56 1    
   108   55   57 1    
   109   55  121 1    
   110   56  122 1    
   111   56  123 1    
   112   56  124 1    
   113   57   58 2    
   114   57   59 am   BACKBONE|DICT|INTERRES
   115   59   60 1    
   116   59  125 1    
   117   60   61 1    
   118   60   62 1    
   119   60  126 1    
   120   61  127 1    
   121   61  128 1    
   122   61  129 1    
   123   62   63 2    
   124   62   64 am   BACKBONE|DICT|INTERRES
   125   64   65 1    
   126   64  130 1    
   127   65   66 1    
   128   65   69 1    
   129   65  131 1    
   130   66   67 am   BACKBONE|DICT|INTERRES
   131   66   68 2    
   132   67  132 1    
   133   67  133 1    
   134   69   70 1    
   135   69  134 1    
   136   69  135 1    
   137   70   71 1    
   138   71  136 1    
   139   71  137 1    
@<TRIPOS>SUBSTRUCTURE
     1 UNK         1 GROUP             0       ****    0 ROOT    
