@<TRIPOS>MOLECULE
3R136
137   139    1
SMALL
USER_CHARGES


@<TRIPOS>ATOM
      1 CA         29.3055   21.9559    4.2407 C.3       0 UNK        -0.1979 
      2 C          28.5065   21.3523    3.0961 C.2       0 UNK         0.4864 
      3 O          27.3217   21.0591    3.2602 O.2       0 UNK        -0.5359 
      4 N          29.1500   21.1699    1.9343 N.am      1 UNK        -0.4318 
      5 CA         28.5355   20.6737    0.6948 C.3       1 UNK         0.0824 
      6 C6         29.6054   20.2510   -0.3454 C.3       12 UNK        -0.0944 
      7 S7         30.6655   21.6175   -0.9384 S.3       12 UNK        -0.2672 
      8 C8         32.0962   21.5478    0.1886 C.3       12 UNK         0.0333 
      9 C9         32.4354   22.9360    0.7147 C.ar      12 UNK        -0.0807 
     10 C10        32.2676   23.2543    2.0686 C.ar      12 UNK        -0.0894 
     11 C11        32.5736   24.5364    2.5376 C.ar      12 UNK        -0.0804 
     12 C12        33.0678   25.4907    1.6477 C.ar      12 UNK        -0.0824 
     13 C13        33.2273   25.1927    0.2932 C.ar      12 UNK        -0.0762 
     14 C14        32.9167   23.9108   -0.1661 C.ar      12 UNK        -0.0782 
     15 C15        33.7337   26.2541   -0.6724 C.3       12 UNK         0.0230 
     16 S16        32.3661   27.1079   -1.5235 S.3       12 UNK        -0.2608 
     17 C17        31.6109   28.0725   -0.1693 C.3       12 UNK        -0.0989 
     18 CA         30.1290   27.6735    0.0952 C.3       5 UNK         0.0716 
     19 N          29.7821   27.5782    1.5209 N.am      5 UNK        -0.4135 
     20 C          29.7829   28.5766    2.4187 C.2       4 UNK         0.5031 
     21 O          30.1780   29.7193    2.1788 O.2       4 UNK        -0.5229 
     22 CA         29.2194   28.2468    3.8182 C.3       4 UNK         0.0329 
     23 CB         28.8707   29.5094    4.6323 C.3       4 UNK        -0.2001 
     24 N          28.0710   27.3334    3.7848 N.am      4 UNK        -0.4303 
     25 C          26.9190   27.5111    3.1232 C.2       3 UNK         0.5044 
     26 O          26.6486   28.5093    2.4551 O.2       3 UNK        -0.5152 
     27 CA         25.9344   26.3315    3.1461 C.3       3 UNK         0.0319 
     28 CB         24.4939   26.8184    3.3796 C.3       3 UNK        -0.2001 
     29 N          25.9777   25.5392    1.9111 N.am      3 UNK        -0.4354 
     30 C          27.0656   24.9635    1.3810 C.2       2 UNK         0.4964 
     31 O          28.2127   25.1000    1.8204 O.2       2 UNK        -0.5047 
     32 CA         26.8497   24.0797    0.1501 C.3       2 UNK         0.0288 
     33 CB         27.1675   24.8436   -1.1458 C.3       2 UNK        -0.2113 
     34 N          27.7697   22.9644    0.3066 N.am      2 UNK        -0.4145 
     35 C          27.5012   21.6684    0.1166 C.2       1 UNK         0.5006 
     36 O          26.4826   21.2473   -0.4348 O.2       1 UNK        -0.5103 
     37 C          29.1118   28.5365   -0.6903 C.2       5 UNK         0.5055 
     38 O          29.5016   29.3098   -1.5664 O.2       5 UNK        -0.5220 
     39 N          27.8221   28.3909   -0.3477 N.am      6 UNK        -0.4450 
     40 CA         26.6757   29.1572   -0.8498 C.3       6 UNK         0.0367 
     41 CB         26.4778   28.9658   -2.3694 C.3       6 UNK        -0.1929 
     42 C          26.7576   30.6332   -0.4175 C.2       6 UNK         0.5070 
     43 O          26.7576   31.5340   -1.2582 O.2       6 UNK        -0.5237 
     44 N          26.8225   30.8317    0.9066 N.am      7 UNK        -0.4739 
     45 CA         26.8566   32.1109    1.6242 C.3       7 UNK         0.0276 
     46 CB         25.5369   32.8872    1.4244 C.3       7 UNK        -0.1927 
     47 C          28.1075   32.9622    1.3280 C.2       7 UNK         0.5013 
     48 O          28.0161   34.1905    1.2878 O.2       7 UNK        -0.5193 
     49 N          29.2643   32.3043    1.1677 N.am      8 UNK        -0.4253 
     50 CA         30.5718   32.9524    1.0127 C.3       8 UNK         0.0242 
     51 CB         31.4574   32.0806    0.1075 C.3       8 UNK        -0.2000 
     52 C          31.2711   33.1994    2.3644 C.2       8 UNK         0.4948 
     53 O          32.3581   33.7780    2.3730 O.2       8 UNK        -0.5275 
     54 N          30.6579   32.7390    3.4676 N.am      9 UNK        -0.4246 
     55 CA         31.1527   32.7604    4.8519 C.3       9 UNK         0.0261 
     56 CB         31.3809   34.2041    5.3500 C.3       9 UNK        -0.1959 
     57 C          32.3745   31.8449    5.0773 C.2       9 UNK         0.5033 
     58 O          33.1613   32.0882    5.9950 O.2       9 UNK        -0.5390 
     59 N          32.5077   30.7999    4.2497 N.am      10 UNK        -0.4215 
     60 CA         33.5487   29.7790    4.3597 C.3       10 UNK         0.0240 
     61 CB         33.6928   29.0909    2.9975 C.3       10 UNK        -0.1982 
     62 C          33.2142   28.7421    5.4458 C.2       10 UNK         0.4970 
     63 O          32.0480   28.5889    5.8138 O.2       10 UNK        -0.4916 
     64 N          34.2494   28.0288    5.9063 N.am      11 UNK        -0.4279 
     65 CA         34.1934   26.9645    6.9282 C.3       11 UNK         0.1003 
     66 C          33.8273   27.4523    8.3650 C.2       11 UNK         0.5709 
     67 N          33.8535   28.7480    8.6547 N.am      11 UNK        -0.7358 
     68 O          33.5512   26.6425    9.2475 O.2       11 UNK        -0.4999 
     69 C69        33.3611   25.7202    6.4916 C.3       12 UNK        -0.0954 
     70 S70        33.9205   24.9959    4.9112 S.3       12 UNK        -0.2268 
     71 C71        32.3527   24.9185    3.9937 C.3       12 UNK         0.0203 
     72 H72        28.8181   21.7570    5.1951 H         1 UNK         0.0888 
     73 H73        30.3095   21.5353    4.2862 H         1 UNK         0.0888 
     74 H74        29.3818   23.0361    4.1165 H         1 UNK         0.0888 
     75 H75        30.1196   21.4353    1.8561 H         1 UNK         0.3017 
     76 H76        27.9751   19.7742    0.9600 H         1 UNK         0.0873 
     77 H77        29.1173   19.8075   -1.2154 H         1 UNK         0.0745 
     78 H78        30.2332   19.4583    0.0644 H         1 UNK         0.0745 
     79 H79        32.9536   21.1446   -0.3522 H         1 UNK         0.0705 
     80 H80        31.9071   20.8592    1.0128 H         1 UNK         0.0705 
     81 H81        31.9028   22.5089    2.7597 H         1 UNK         0.1334 
     82 H82        33.3255   26.4699    2.0177 H         1 UNK         0.1417 
     83 H83        33.0361   23.6734   -1.2148 H         1 UNK         0.1562 
     84 H84        34.3777   25.7902   -1.4210 H         1 UNK         0.0748 
     85 H85        34.3543   26.9855   -0.1519 H         1 UNK         0.0748 
     86 H86        31.7210   29.1332   -0.3926 H         1 UNK         0.0940 
     87 H87        32.2045   27.9246    0.7254 H         1 UNK         0.0940 
     88 H88        29.9869   26.6558   -0.2717 H         1 UNK         0.0703 
     89 H89        29.4115   26.6771    1.8118 H         1 UNK         0.3081 
     90 H90        30.0129   27.7178    4.3465 H         1 UNK         0.0719 
     91 H91        28.4560   29.2503    5.6063 H         1 UNK         0.0809 
     92 H92        28.1475   30.1408    4.1160 H         1 UNK         0.0809 
     93 H93        29.7622   30.1053    4.8170 H         1 UNK         0.0809 
     94 H94        28.2088   26.4477    4.2520 H         1 UNK         0.2990 
     95 H95        26.2031   25.6707    3.9729 H         1 UNK         0.0690 
     96 H96        23.8045   25.9818    3.4947 H         1 UNK         0.0788 
     97 H97        24.1366   27.4374    2.5553 H         1 UNK         0.0788 
     98 H98        24.4274   27.4183    4.2884 H         1 UNK         0.0788 
     99 H99        25.0879   25.3882    1.4577 H         1 UNK         0.2993 
    100 H100       25.8177   23.7218    0.1319 H         1 UNK         0.0949 
    101 H101       28.1936   25.2126   -1.1578 H         1 UNK         0.0767 
    102 H102       27.0355   24.2050   -2.0194 H         1 UNK         0.0767 
    103 H103       26.5057   25.7019   -1.2674 H         1 UNK         0.0767 
    104 H104       28.6188   23.2079    0.8011 H         1 UNK         0.3013 
    105 H105       27.6157   27.7946    0.4414 H         1 UNK         0.3121 
    106 H106       25.7945   28.7429   -0.3568 H         1 UNK         0.0774 
    107 H107       25.5533   29.4404   -2.7000 H         1 UNK         0.0815 
    108 H108       27.2887   29.4073   -2.9490 H         1 UNK         0.0815 
    109 H109       26.4131   27.9104   -2.6326 H         1 UNK         0.0815 
    110 H110       26.8057   30.0017    1.5013 H         1 UNK         0.2987 
    111 H111       26.9194   31.8544    2.6827 H         1 UNK         0.0949 
    112 H112       25.4234   33.2362    0.3976 H         1 UNK         0.0806 
    113 H113       24.6724   32.2692    1.6668 H         1 UNK         0.0806 
    114 H114       25.4963   33.7646    2.0711 H         1 UNK         0.0806 
    115 H115       29.2782   31.2920    1.2478 H         1 UNK         0.3010 
    116 H116       30.4421   33.9212    0.5258 H         1 UNK         0.0829 
    117 H117       30.9436   31.8034   -0.8134 H         1 UNK         0.0813 
    118 H118       32.3676   32.6117   -0.1736 H         1 UNK         0.0813 
    119 H119       31.7635   31.1661    0.6141 H         1 UNK         0.0813 
    120 H120       29.7807   32.2596    3.3264 H         1 UNK         0.3038 
    121 H121       30.3527   32.3386    5.4615 H         1 UNK         0.0769 
    122 H122       32.2334   34.6742    4.8593 H         1 UNK         0.0811 
    123 H123       30.5050   34.8285    5.1744 H         1 UNK         0.0811 
    124 H124       31.5784   34.2200    6.4225 H         1 UNK         0.0811 
    125 H125       31.7955   30.6461    3.5470 H         1 UNK         0.3204 
    126 H126       34.4942   30.2644    4.6119 H         1 UNK         0.0748 
    127 H127       34.5114   28.3701    3.0010 H         1 UNK         0.0771 
    128 H128       32.7788   28.5560    2.7492 H         1 UNK         0.0771 
    129 H129       33.8931   29.8092    2.2019 H         1 UNK         0.0771 
    130 H130       35.1713   28.2249    5.5444 H         1 UNK         0.2980 
    131 H131       35.2252   26.6259    7.0263 H         1 UNK         0.0545 
    132 H132       34.0777   29.4280    7.9462 H         1 UNK         0.3459 
    133 H133       33.6278   29.0480    9.5899 H         1 UNK         0.3459 
    134 H134       33.4354   24.9308    7.2414 H         1 UNK         0.0616 
    135 H135       32.3019   25.9746    6.4317 H         1 UNK         0.0616 
    136 H136       31.8600   25.8912    4.0378 H         1 UNK         0.0634 
    137 H137       31.6851   24.2083    4.4835 H         1 UNK         0.0634 
@<TRIPOS>BOND
     1    1    2 1    
     2    1   72 1    
     3    1   73 1    
     4    1   74 1    
     5    2    3 2    
     6    2    4 am   BACKBONE|DICT|INTERRES
     7    4    5 1    
     8    4   75 1    
     9    5    6 1    
    10    5   35 1    
    11    5   76 1    
    12    6    7 1    
    13    6   77 1    
    14    6   78 1    
    15    7    8 1    
    16    8    9 1    
    17    8   79 1    
    18    8   80 1    
    19    9   10 ar   
    20    9   14 ar   
    21   10   11 ar   
    22   10   81 1    
    23   11   12 ar   
    24   11   71 1    
    25   12   13 ar   
    26   12   82 1    
    27   13   14 ar   
    28   13   15 1    
    29   14   83 1    
    30   15   16 1    
    31   15   84 1    
    32   15   85 1    
    33   16   17 1    
    34   17   18 1    
    35   17   86 1    
    36   17   87 1    
    37   18   19 1    
    38   18   37 1    
    39   18   88 1    
    40   19   20 am   BACKBONE|DICT|INTERRES
    41   19   89 1    
    42   20   21 2    
    43   20   22 1    
    44   22   23 1    
    45   22   24 1    
    46   22   90 1    
    47   23   91 1    
    48   23   92 1    
    49   23   93 1    
    50   24   25 am   BACKBONE|DICT|INTERRES
    51   24   94 1    
    52   25   26 2    
    53   25   27 1    
    54   27   28 1    
    55   27   29 1    
    56   27   95 1    
    57   28   96 1    
    58   28   97 1    
    59   28   98 1    
    60   29   30 am   BACKBONE|DICT|INTERRES
    61   29   99 1    
    62   30   31 2    
    63   30   32 1    
    64   32   33 1    
    65   32   34 1    
    66   32  100 1    
    67   33  101 1    
    68   33  102 1    
    69   33  103 1    
    70   34   35 am   BACKBONE|DICT|INTERRES
    71   34  104 1    
    72   35   36 2    
    73   37   38 2    
    74   37   39 am   BACKBONE|DICT|INTERRES
    75   39   40 1    
    76   39  105 1    
    77   40   41 1    
    78   40   42 1    
    79   40  106 1    
    80   41  107 1    
    81   41  108 1    
    82   41  109 1    
    83   42   43 2    
    84   42   44 am   BACKBONE|DICT|INTERRES
    85   44   45 1    
    86   44  110 1    
    87   45   46 1    
    88   45   47 1    
    89   45  111 1    
    90   46  112 1    
    91   46  113 1    
    92   46  114 1    
    93   47   48 2    
    94   47   49 am   BACKBONE|DICT|INTERRES
    95   49   50 1    
    96   49  115 1    
    97   50   51 1    
    98   50   52 1    
    99   50  116 1    
   100   51  117 1    
   101   51  118 1    
   102   51  119 1    
   103   52   53 2    
   104   52   54 am   BACKBONE|DICT|INTERRES
   105   54   55 1    
   106   54  120 1    
   107   55   56 1    
   108   55   57 1    
   109   55  121 1    
   110   56  122 1    
   111   56  123 1    
   112   56  124 1    
   113   57   58 2    
   114   57   59 am   BACKBONE|DICT|INTERRES
   115   59   60 1    
   116   59  125 1    
   117   60   61 1    
   118   60   62 1    
   119   60  126 1    
   120   61  127 1    
   121   61  128 1    
   122   61  129 1    
   123   62   63 2    
   124   62   64 am   BACKBONE|DICT|INTERRES
   125   64   65 1    
   126   64  130 1    
   127   65   66 1    
   128   65   69 1    
   129   65  131 1    
   130   66   67 am   BACKBONE|DICT|INTERRES
   131   66   68 2    
   132   67  132 1    
   133   67  133 1    
   134   69   70 1    
   135   69  134 1    
   136   69  135 1    
   137   70   71 1    
   138   71  136 1    
   139   71  137 1    
@<TRIPOS>SUBSTRUCTURE
     1 UNK         1 GROUP             0       ****    0 ROOT    
