@<TRIPOS>MOLECULE
3R136
137   139    1
SMALL
USER_CHARGES


@<TRIPOS>ATOM
      1 CA         29.0987   20.3169    3.6085 C.3       0 UNK        -0.1979 
      2 C          28.6642   20.3498    2.1510 C.2       0 UNK         0.4864 
      3 O          27.6686   19.7200    1.7920 O.2       0 UNK        -0.5359 
      4 N          29.4069   21.0841    1.3122 N.am      1 UNK        -0.4318 
      5 CA         29.1194   21.2900   -0.1114 C.3       1 UNK         0.0824 
      6 C6         30.3242   21.9140   -0.8575 C.3       12 UNK        -0.0944 
      7 S7         31.7959   20.8319   -0.9407 S.3       12 UNK        -0.2672 
      8 C8         32.6233   21.0075    0.6830 C.3       12 UNK         0.0333 
      9 C9         32.6313   22.4285    1.2367 C.ar      12 UNK        -0.0807 
     10 C10        32.1078   22.6873    2.5078 C.ar      12 UNK        -0.0894 
     11 C11        32.0839   23.9850    3.0273 C.ar      12 UNK        -0.0804 
     12 C12        32.6137   25.0284    2.2576 C.ar      12 UNK        -0.0824 
     13 C13        33.1562   24.7850    0.9925 C.ar      12 UNK        -0.0762 
     14 C14        33.1666   23.4815    0.4892 C.ar      12 UNK        -0.0782 
     15 C15        33.7456   25.9241    0.1728 C.3       12 UNK         0.0230 
     16 S16        32.4800   26.7743   -0.8251 S.3       12 UNK        -0.2608 
     17 C17        31.6877   27.8565    0.4124 C.3       12 UNK        -0.0989 
     18 CA         30.1754   27.5520    0.6008 C.3       5 UNK         0.0716 
     19 N          29.7377   27.6372    1.9992 N.am      5 UNK        -0.4135 
     20 C          29.7230   28.7356    2.7714 C.2       4 UNK         0.5031 
     21 O          30.1725   29.8307    2.4222 O.2       4 UNK        -0.5229 
     22 CA         29.0544   28.5911    4.1564 C.3       4 UNK         0.0329 
     23 CB         28.6399   29.9482    4.7597 C.3       4 UNK        -0.2001 
     24 N          27.9242   27.6532    4.1723 N.am      4 UNK        -0.4303 
     25 C          26.8228   27.7054    3.4112 C.2       3 UNK         0.5044 
     26 O          26.5871   28.5915    2.5882 O.2       3 UNK        -0.5152 
     27 CA         25.8560   26.5171    3.5332 C.3       3 UNK         0.0319 
     28 CB         24.4213   27.0036    3.7969 C.3       3 UNK        -0.2001 
     29 N          25.8676   25.6753    2.3317 N.am      3 UNK        -0.4354 
     30 C          26.9455   25.0751    1.8083 C.2       2 UNK         0.4964 
     31 O          28.0906   25.1853    2.2603 O.2       2 UNK        -0.5047 
     32 CA         26.7150   24.2267    0.5535 C.3       2 UNK         0.0288 
     33 CB         26.6932   25.1045   -0.7123 C.3       2 UNK        -0.2113 
     34 N          27.7990   23.2558    0.4860 N.am      2 UNK        -0.4145 
     35 C          27.8698   22.1740   -0.2980 C.2       1 UNK         0.5006 
     36 O          27.0095   21.8576   -1.1215 O.2       1 UNK        -0.5103 
     37 C          29.2531   28.3673   -0.3379 C.2       5 UNK         0.5055 
     38 O          29.7347   29.0578   -1.2368 O.2       5 UNK        -0.5220 
     39 N          27.9365   28.2726   -0.0943 N.am      6 UNK        -0.4450 
     40 CA         26.8457   28.9867   -0.7678 C.3       6 UNK         0.0367 
     41 CB         26.7939   28.6699   -2.2787 C.3       6 UNK        -0.1929 
     42 C          26.8858   30.4923   -0.4537 C.2       6 UNK         0.5070 
     43 O          26.9282   31.3206   -1.3648 O.2       6 UNK        -0.5237 
     44 N          26.8698   30.8011    0.8513 N.am      7 UNK        -0.4739 
     45 CA         26.8640   32.1396    1.4542 C.3       7 UNK         0.0276 
     46 CB         25.5492   32.8801    1.1281 C.3       7 UNK        -0.1927 
     47 C          28.1191   32.9756    1.1314 C.2       7 UNK         0.5013 
     48 O          28.0295   34.2007    1.0315 O.2       7 UNK        -0.5193 
     49 N          29.2751   32.3094    1.0043 N.am      8 UNK        -0.4253 
     50 CA         30.5773   32.9458    0.7799 C.3       8 UNK         0.0242 
     51 CB         31.4820   31.9697    0.0111 C.3       8 UNK        -0.2000 
     52 C          31.2605   33.3818    2.0896 C.2       8 UNK         0.4948 
     53 O          32.2997   34.0396    2.0259 O.2       8 UNK        -0.5275 
     54 N          30.6901   32.9862    3.2396 N.am      9 UNK        -0.4246 
     55 CA         31.2058   33.1593    4.6050 C.3       9 UNK         0.0261 
     56 CB         31.3494   34.6519    4.9740 C.3       9 UNK        -0.1959 
     57 C          32.4886   32.3439    4.8696 C.2       9 UNK         0.5033 
     58 O          33.2923   32.7242    5.7237 O.2       9 UNK        -0.5390 
     59 N          32.6477   31.2298    4.1444 N.am      10 UNK        -0.4215 
     60 CA         33.7247   30.2563    4.3157 C.3       10 UNK         0.0240 
     61 CB         34.1395   29.7529    2.9233 C.3       10 UNK        -0.1982 
     62 C          33.2599   29.0998    5.2175 C.2       10 UNK         0.4970 
     63 O          32.0813   29.0357    5.5671 O.2       10 UNK        -0.4916 
     64 N          34.2054   28.2212    5.5770 N.am      11 UNK        -0.4279 
     65 CA         34.0470   26.9925    6.3832 C.3       11 UNK         0.1003 
     66 C          33.4414   27.1456    7.8141 C.2       11 UNK         0.5709 
     67 N          33.3156   28.3499    8.3574 N.am      11 UNK        -0.7358 
     68 O          33.1318   26.1527    8.4692 O.2       11 UNK        -0.4999 
     69 C69        33.4878   25.7841    5.5710 C.3       12 UNK        -0.0954 
     70 S70        31.7086   25.8457    5.1628 S.3       12 UNK        -0.2268 
     71 C71        31.4562   24.2018    4.4078 C.3       12 UNK         0.0203 
     72 H72        28.2503   20.0905    4.2541 H         1 UNK         0.0888 
     73 H73        29.8562   19.5482    3.7600 H         1 UNK         0.0888 
     74 H74        29.5070   21.2769    3.9232 H         1 UNK         0.0888 
     75 H75        30.2208   21.5694    1.6590 H         1 UNK         0.3017 
     76 H76        28.9026   20.3171   -0.5582 H         1 UNK         0.0873 
     77 H77        30.5910   22.8834   -0.4346 H         1 UNK         0.0745 
     78 H78        30.0464   22.1217   -1.8930 H         1 UNK         0.0745 
     79 H79        33.6544   20.6659    0.5836 H         1 UNK         0.0705 
     80 H80        32.1499   20.3203    1.3857 H         1 UNK         0.0705 
     81 H81        31.7199   21.8739    3.1049 H         1 UNK         0.1334 
     82 H82        32.6127   26.0358    2.6417 H         1 UNK         0.1417 
     83 H83        33.5792   23.2854   -0.4914 H         1 UNK         0.1562 
     84 H84        34.5119   25.5360   -0.5000 H         1 UNK         0.0748 
     85 H85        34.2544   26.6390    0.8215 H         1 UNK         0.0748 
     86 H86        31.8676   28.8960    0.1396 H         1 UNK         0.0940 
     87 H87        32.2060   27.7286    1.3577 H         1 UNK         0.0940 
     88 H88        30.0079   26.5063    0.3365 H         1 UNK         0.0703 
     89 H89        29.3216   26.7876    2.3696 H         1 UNK         0.3081 
     90 H90        29.8066   28.1548    4.8117 H         1 UNK         0.0719 
     91 H91        28.1748   29.8216    5.7371 H         1 UNK         0.0809 
     92 H92        27.9368   30.4795    4.1190 H         1 UNK         0.0809 
     93 H93        29.5111   30.5864    4.9013 H         1 UNK         0.0809 
     94 H94        28.0386   26.8531    4.7796 H         1 UNK         0.2990 
     95 H95        26.1634   25.8957    4.3769 H         1 UNK         0.0690 
     96 H96        23.7409   26.1675    3.9597 H         1 UNK         0.0788 
     97 H97        24.0350   27.5946    2.9651 H         1 UNK         0.0788 
     98 H98        24.3801   27.6315    4.6881 H         1 UNK         0.0788 
     99 H99        24.9769   25.5503    1.8724 H         1 UNK         0.2993 
    100 H100       25.7677   23.6930    0.6559 H         1 UNK         0.0949 
    101 H101       27.6609   25.5730   -0.8927 H         1 UNK         0.0767 
    102 H102       26.4405   24.5204   -1.5972 H         1 UNK         0.0767 
    103 H103       25.9488   25.8976   -0.6319 H         1 UNK         0.0767 
    104 H104       28.5362   23.4361    1.1568 H         1 UNK         0.3013 
    105 H105       27.6541   27.7590    0.7293 H         1 UNK         0.3121 
    106 H106       25.9206   28.6094   -0.3285 H         1 UNK         0.0774 
    107 H107       25.9023   29.1038   -2.7326 H         1 UNK         0.0815 
    108 H108       27.6536   29.0744   -2.8132 H         1 UNK         0.0815 
    109 H109       26.7607   27.5963   -2.4613 H         1 UNK         0.0815 
    110 H110       26.8190   30.0252    1.5125 H         1 UNK         0.2987 
    111 H111       26.8837   31.9820    2.5331 H         1 UNK         0.0949 
    112 H112       25.4794   33.1349    0.0701 H         1 UNK         0.0806 
    113 H113       24.6793   32.2764    1.3865 H         1 UNK         0.0806 
    114 H114       25.4730   33.8111    1.6913 H         1 UNK         0.0806 
    115 H115       29.2837   31.3039    1.1371 H         1 UNK         0.3010 
    116 H116       30.4402   33.8378    0.1649 H         1 UNK         0.0829 
    117 H117       30.9994   31.6037   -0.8955 H         1 UNK         0.0813 
    118 H118       32.4130   32.4532   -0.2877 H         1 UNK         0.0813 
    119 H119       31.7477   31.1095    0.6242 H         1 UNK         0.0813 
    120 H120       29.8553   32.4236    3.1563 H         1 UNK         0.3038 
    121 H121       30.4481   32.7405    5.2679 H         1 UNK         0.0769 
    122 H122       32.1610   35.1310    4.4260 H         1 UNK         0.0811 
    123 H123       30.4320   35.2027    4.7666 H         1 UNK         0.0811 
    124 H124       31.5646   34.7716    6.0364 H         1 UNK         0.0811 
    125 H125       31.8975   30.9540    3.5227 H         1 UNK         0.3204 
    126 H126       34.5886   30.7288    4.7880 H         1 UNK         0.0748 
    127 H127       34.9094   28.9826    2.9796 H         1 UNK         0.0771 
    128 H128       33.2906   29.3350    2.3877 H         1 UNK         0.0771 
    129 H129       34.5411   30.5656    2.3175 H         1 UNK         0.0771 
    130 H130       35.1494   28.3948    5.2639 H         1 UNK         0.2980 
    131 H131       35.0802   26.7222    6.6039 H         1 UNK         0.0545 
    132 H132       33.5477   29.1741    7.8275 H         1 UNK         0.3459 
    133 H133       32.9404   28.4345    9.2886 H         1 UNK         0.3459 
    134 H134       34.0506   25.6840    4.6426 H         1 UNK         0.0616 
    135 H135       33.6715   24.8589    6.1199 H         1 UNK         0.0616 
    136 H136       30.3810   24.0408    4.3176 H         1 UNK         0.0634 
    137 H137       31.8251   23.4436    5.1002 H         1 UNK         0.0634 
@<TRIPOS>BOND
     1    1    2 1    
     2    1   72 1    
     3    1   73 1    
     4    1   74 1    
     5    2    3 2    
     6    2    4 am   BACKBONE|DICT|INTERRES
     7    4    5 1    
     8    4   75 1    
     9    5    6 1    
    10    5   35 1    
    11    5   76 1    
    12    6    7 1    
    13    6   77 1    
    14    6   78 1    
    15    7    8 1    
    16    8    9 1    
    17    8   79 1    
    18    8   80 1    
    19    9   10 ar   
    20    9   14 ar   
    21   10   11 ar   
    22   10   81 1    
    23   11   12 ar   
    24   11   71 1    
    25   12   13 ar   
    26   12   82 1    
    27   13   14 ar   
    28   13   15 1    
    29   14   83 1    
    30   15   16 1    
    31   15   84 1    
    32   15   85 1    
    33   16   17 1    
    34   17   18 1    
    35   17   86 1    
    36   17   87 1    
    37   18   19 1    
    38   18   37 1    
    39   18   88 1    
    40   19   20 am   BACKBONE|DICT|INTERRES
    41   19   89 1    
    42   20   21 2    
    43   20   22 1    
    44   22   23 1    
    45   22   24 1    
    46   22   90 1    
    47   23   91 1    
    48   23   92 1    
    49   23   93 1    
    50   24   25 am   BACKBONE|DICT|INTERRES
    51   24   94 1    
    52   25   26 2    
    53   25   27 1    
    54   27   28 1    
    55   27   29 1    
    56   27   95 1    
    57   28   96 1    
    58   28   97 1    
    59   28   98 1    
    60   29   30 am   BACKBONE|DICT|INTERRES
    61   29   99 1    
    62   30   31 2    
    63   30   32 1    
    64   32   33 1    
    65   32   34 1    
    66   32  100 1    
    67   33  101 1    
    68   33  102 1    
    69   33  103 1    
    70   34   35 am   BACKBONE|DICT|INTERRES
    71   34  104 1    
    72   35   36 2    
    73   37   38 2    
    74   37   39 am   BACKBONE|DICT|INTERRES
    75   39   40 1    
    76   39  105 1    
    77   40   41 1    
    78   40   42 1    
    79   40  106 1    
    80   41  107 1    
    81   41  108 1    
    82   41  109 1    
    83   42   43 2    
    84   42   44 am   BACKBONE|DICT|INTERRES
    85   44   45 1    
    86   44  110 1    
    87   45   46 1    
    88   45   47 1    
    89   45  111 1    
    90   46  112 1    
    91   46  113 1    
    92   46  114 1    
    93   47   48 2    
    94   47   49 am   BACKBONE|DICT|INTERRES
    95   49   50 1    
    96   49  115 1    
    97   50   51 1    
    98   50   52 1    
    99   50  116 1    
   100   51  117 1    
   101   51  118 1    
   102   51  119 1    
   103   52   53 2    
   104   52   54 am   BACKBONE|DICT|INTERRES
   105   54   55 1    
   106   54  120 1    
   107   55   56 1    
   108   55   57 1    
   109   55  121 1    
   110   56  122 1    
   111   56  123 1    
   112   56  124 1    
   113   57   58 2    
   114   57   59 am   BACKBONE|DICT|INTERRES
   115   59   60 1    
   116   59  125 1    
   117   60   61 1    
   118   60   62 1    
   119   60  126 1    
   120   61  127 1    
   121   61  128 1    
   122   61  129 1    
   123   62   63 2    
   124   62   64 am   BACKBONE|DICT|INTERRES
   125   64   65 1    
   126   64  130 1    
   127   65   66 1    
   128   65   69 1    
   129   65  131 1    
   130   66   67 am   BACKBONE|DICT|INTERRES
   131   66   68 2    
   132   67  132 1    
   133   67  133 1    
   134   69   70 1    
   135   69  134 1    
   136   69  135 1    
   137   70   71 1    
   138   71  136 1    
   139   71  137 1    
@<TRIPOS>SUBSTRUCTURE
     1 UNK         1 GROUP             0       ****    0 ROOT    
