@<TRIPOS>MOLECULE
3R136
137   139    1
SMALL
USER_CHARGES


@<TRIPOS>ATOM
      1 CA         27.2976   21.3515   -1.8341 C.3       0 UNK        -0.1979 
      2 C          27.5335   22.3441   -0.7069 C.2       0 UNK         0.4864 
      3 O          27.4509   23.5530   -0.9327 O.2       0 UNK        -0.5359 
      4 N          27.8089   21.8451    0.5070 N.am      1 UNK        -0.4318 
      5 CA         28.1352   22.6010    1.7280 C.3       1 UNK         0.0824 
      6 C6         28.8178   21.7006    2.7945 C.3       12 UNK        -0.0944 
      7 S7         30.2259   20.7269    2.1560 S.3       12 UNK        -0.2672 
      8 C8         31.6742   21.5227    2.9388 C.3       12 UNK         0.0333 
      9 C9         32.2631   22.7141    2.1798 C.ar      12 UNK        -0.0807 
     10 C10        33.0177   23.6576    2.8855 C.ar      12 UNK        -0.0894 
     11 C11        33.6316   24.7275    2.2264 C.ar      12 UNK        -0.0804 
     12 C12        33.4928   24.8497    0.8413 C.ar      12 UNK        -0.0824 
     13 C13        32.7321   23.9253    0.1218 C.ar      12 UNK        -0.0762 
     14 C14        32.1297   22.8564    0.7930 C.ar      12 UNK        -0.0782 
     15 C15        32.5481   24.0827   -1.3822 C.3       12 UNK         0.0230 
     16 S16        31.6546   25.6102   -1.8280 S.3       12 UNK        -0.2608 
     17 C17        30.2012   25.5520   -0.7279 C.3       12 UNK        -0.0989 
     18 CA         30.1222   26.8209    0.1654 C.3       5 UNK         0.0716 
     19 N          29.1933   27.7851   -0.4275 N.am      5 UNK        -0.4135 
     20 C          28.7625   28.9348    0.1025 C.2       4 UNK         0.5031 
     21 O          29.2524   29.4513    1.1053 O.2       4 UNK        -0.5229 
     22 CA         27.5287   29.5846   -0.5509 C.3       4 UNK         0.0329 
     23 CB         27.9207   30.4419   -1.7695 C.3       4 UNK        -0.2001 
     24 N          26.4559   28.6230   -0.8644 N.am      4 UNK        -0.4303 
     25 C          26.4485   27.6365   -1.7733 C.2       3 UNK         0.5044 
     26 O          27.3757   27.4177   -2.5553 O.2       3 UNK        -0.5152 
     27 CA         25.2382   26.6886   -1.7368 C.3       3 UNK         0.0319 
     28 CB         25.1240   25.8336   -3.0125 C.3       3 UNK        -0.2001 
     29 N          25.3276   25.7934   -0.5818 N.am      3 UNK        -0.4354 
     30 C          24.9824   26.1211    0.6739 C.2       2 UNK         0.4964 
     31 O          24.5417   27.2291    0.9826 O.2       2 UNK        -0.5047 
     32 CA         25.1470   25.0526    1.7661 C.3       2 UNK         0.0288 
     33 CB         23.8395   24.2603    1.9535 C.3       2 UNK        -0.2113 
     34 N          26.2568   24.1542    1.4613 N.am      2 UNK        -0.4145 
     35 C          26.9119   23.3583    2.3094 C.2       1 UNK         0.5006 
     36 O          26.5860   23.2074    3.4892 O.2       1 UNK        -0.5103 
     37 C          29.6773   26.4734    1.6008 C.2       5 UNK         0.5055 
     38 O          28.5135   26.1221    1.7920 O.2       5 UNK        -0.5220 
     39 N          30.5769   26.6418    2.5800 N.am      6 UNK        -0.4450 
     40 CA         30.3878   26.5028    4.0351 C.3       6 UNK         0.0367 
     41 CB         29.9391   25.0777    4.4108 C.3       6 UNK        -0.1929 
     42 C          29.4482   27.5403    4.6867 C.2       6 UNK         0.5070 
     43 O          29.6534   27.8763    5.8532 O.2       6 UNK        -0.5237 
     44 N          28.4282   28.0082    3.9584 N.am      7 UNK        -0.4739 
     45 CA         27.4282   28.9685    4.4230 C.3       7 UNK         0.0276 
     46 CB         26.2032   28.9108    3.4968 C.3       7 UNK        -0.1927 
     47 C          27.9667   30.4044    4.5217 C.2       7 UNK         0.5013 
     48 O          27.6341   31.1050    5.4793 O.2       7 UNK        -0.5193 
     49 N          28.7638   30.8275    3.5316 N.am      8 UNK        -0.4253 
     50 CA         29.3754   32.1547    3.4783 C.3       8 UNK         0.0242 
     51 CB         29.8036   32.4610    2.0335 C.3       8 UNK        -0.2000 
     52 C          30.5851   32.2461    4.4169 C.2       8 UNK         0.4948 
     53 O          31.3060   31.2604    4.5939 O.2       8 UNK        -0.5275 
     54 N          30.8384   33.4569    4.9325 N.am      9 UNK        -0.4246 
     55 CA         31.9347   33.7931    5.8534 C.3       9 UNK         0.0261 
     56 CB         31.7877   35.2618    6.2861 C.3       9 UNK        -0.1959 
     57 C          33.3571   33.5287    5.3164 C.2       9 UNK         0.5033 
     58 O          34.3064   33.5498    6.1011 O.2       9 UNK        -0.5390 
     59 N          33.4817   33.2703    4.0071 N.am      10 UNK        -0.4215 
     60 CA         34.7013   32.8267    3.3343 C.3       10 UNK         0.0240 
     61 CB         34.4484   32.7643    1.8189 C.3       10 UNK        -0.1982 
     62 C          35.2335   31.4745    3.8457 C.2       10 UNK         0.4970 
     63 O          36.4525   31.2956    3.8566 O.2       10 UNK        -0.4916 
     64 N          34.3423   30.5630    4.2673 N.am      11 UNK        -0.4279 
     65 CA         34.7239   29.2661    4.8516 C.3       11 UNK         0.1003 
     66 C          33.6893   28.6394    5.8291 C.2       11 UNK         0.5709 
     67 N          32.4962   29.1908    6.0049 N.am      11 UNK        -0.7358 
     68 O          33.9867   27.6298    6.4632 O.2       11 UNK        -0.4999 
     69 C69        35.2686   28.2607    3.7953 C.3       12 UNK        -0.0954 
     70 S70        33.9955   27.4493    2.7641 S.3       12 UNK        -0.2268 
     71 C71        34.4912   25.7122    3.0061 C.3       12 UNK         0.0203 
     72 H72        28.0145   21.5219   -2.6368 H         1 UNK         0.0888 
     73 H73        27.4021   20.3199   -1.4986 H         1 UNK         0.0888 
     74 H74        26.2944   21.4778   -2.2403 H         1 UNK         0.0888 
     75 H75        27.8449   20.8418    0.6188 H         1 UNK         0.3017 
     76 H76        28.8600   23.3680    1.4489 H         1 UNK         0.0873 
     77 H77        29.1501   22.3014    3.6420 H         1 UNK         0.0745 
     78 H78        28.0971   20.9882    3.2008 H         1 UNK         0.0745 
     79 H79        31.4184   21.8096    3.9598 H         1 UNK         0.0705 
     80 H80        32.4585   20.7698    3.0263 H         1 UNK         0.0705 
     81 H81        33.1433   23.5469    3.9542 H         1 UNK         0.1334 
     82 H82        33.9698   25.6703    0.3224 H         1 UNK         0.1417 
     83 H83        31.5615   22.1323    0.2262 H         1 UNK         0.1562 
     84 H84        32.0075   23.2309   -1.7980 H         1 UNK         0.0748 
     85 H85        33.5261   24.0897   -1.8653 H         1 UNK         0.0748 
     86 H86        30.2217   24.6349   -0.1398 H         1 UNK         0.0940 
     87 H87        29.3086   25.4459   -1.3477 H         1 UNK         0.0940 
     88 H88        31.0995   27.3044    0.2265 H         1 UNK         0.0703 
     89 H89        28.7054   27.4731   -1.2629 H         1 UNK         0.3081 
     90 H90        27.1046   30.2596    0.1945 H         1 UNK         0.0719 
     91 H91        28.3906   29.8511   -2.5561 H         1 UNK         0.0809 
     92 H92        27.0521   30.9413   -2.1982 H         1 UNK         0.0809 
     93 H93        28.6318   31.2176   -1.4820 H         1 UNK         0.0809 
     94 H94        25.6733   28.6314   -0.2188 H         1 UNK         0.2990 
     95 H95        24.3341   27.2966   -1.6589 H         1 UNK         0.0690 
     96 H96        24.2239   25.2188   -2.9977 H         1 UNK         0.0788 
     97 H97        25.9809   25.1686   -3.1328 H         1 UNK         0.0788 
     98 H98        25.0715   26.4637   -3.9014 H         1 UNK         0.0788 
     99 H99        25.7217   24.8813   -0.7719 H         1 UNK         0.2993 
    100 H100       25.3829   25.5750    2.6956 H         1 UNK         0.0949 
    101 H101       23.9068   23.5710    2.7952 H         1 UNK         0.0767 
    102 H102       23.0022   24.9305    2.1530 H         1 UNK         0.0767 
    103 H103       23.5912   23.6799    1.0641 H         1 UNK         0.0767 
    104 H104       26.6580   24.2161    0.5280 H         1 UNK         0.3013 
    105 H105       31.4995   26.9622    2.3150 H         1 UNK         0.3121 
    106 H106       31.3755   26.6624    4.4711 H         1 UNK         0.0774 
    107 H107       29.9808   24.9312    5.4907 H         1 UNK         0.0815 
    108 H108       28.9130   24.8809    4.1003 H         1 UNK         0.0815 
    109 H109       30.5765   24.3237    3.9556 H         1 UNK         0.0815 
    110 H110       28.3112   27.6242    3.0263 H         1 UNK         0.2987 
    111 H111       27.1100   28.6690    5.4241 H         1 UNK         0.0949 
    112 H112       26.4639   29.1435    2.4640 H         1 UNK         0.0806 
    113 H113       25.7446   27.9223    3.5100 H         1 UNK         0.0806 
    114 H114       25.4399   29.6241    3.8106 H         1 UNK         0.0806 
    115 H115       29.0031   30.1878    2.7763 H         1 UNK         0.3010 
    116 H116       28.6298   32.8921    3.7843 H         1 UNK         0.0829 
    117 H117       28.9614   32.3828    1.3456 H         1 UNK         0.0813 
    118 H118       30.2004   33.4730    1.9449 H         1 UNK         0.0813 
    119 H119       30.5786   31.7744    1.6892 H         1 UNK         0.0813 
    120 H120       30.2084   34.2132    4.7043 H         1 UNK         0.3038 
    121 H121       31.8149   33.1635    6.7375 H         1 UNK         0.0769 
    122 H122       31.8715   35.9424    5.4378 H         1 UNK         0.0811 
    123 H123       32.5620   35.5391    7.0031 H         1 UNK         0.0811 
    124 H124       30.8268   35.4408    6.7690 H         1 UNK         0.0811 
    125 H125       32.6393   33.2816    3.4523 H         1 UNK         0.3204 
    126 H126       35.4725   33.5763    3.5240 H         1 UNK         0.0748 
    127 H127       34.1544   33.7371    1.4240 H         1 UNK         0.0771 
    128 H128       35.3501   32.4596    1.2855 H         1 UNK         0.0771 
    129 H129       33.6645   32.0477    1.5689 H         1 UNK         0.0771 
    130 H130       33.3524   30.7769    4.2450 H         1 UNK         0.2980 
    131 H131       35.5628   29.4888    5.5143 H         1 UNK         0.0545 
    132 H132       31.8443   28.7347    6.6240 H         1 UNK         0.3459 
    133 H133       32.1706   29.9952    5.4745 H         1 UNK         0.3459 
    134 H134       35.8534   27.4968    4.3103 H         1 UNK         0.0616 
    135 H135       35.9773   28.7490    3.1258 H         1 UNK         0.0616 
    136 H136       35.5293   25.5904    2.6937 H         1 UNK         0.0634 
    137 H137       34.4571   25.4883    4.0738 H         1 UNK         0.0634 
@<TRIPOS>BOND
     1    1    2 1    
     2    1   72 1    
     3    1   73 1    
     4    1   74 1    
     5    2    3 2    
     6    2    4 am   BACKBONE|DICT|INTERRES
     7    4    5 1    
     8    4   75 1    
     9    5    6 1    
    10    5   35 1    
    11    5   76 1    
    12    6    7 1    
    13    6   77 1    
    14    6   78 1    
    15    7    8 1    
    16    8    9 1    
    17    8   79 1    
    18    8   80 1    
    19    9   10 ar   
    20    9   14 ar   
    21   10   11 ar   
    22   10   81 1    
    23   11   12 ar   
    24   11   71 1    
    25   12   13 ar   
    26   12   82 1    
    27   13   14 ar   
    28   13   15 1    
    29   14   83 1    
    30   15   16 1    
    31   15   84 1    
    32   15   85 1    
    33   16   17 1    
    34   17   18 1    
    35   17   86 1    
    36   17   87 1    
    37   18   19 1    
    38   18   37 1    
    39   18   88 1    
    40   19   20 am   BACKBONE|DICT|INTERRES
    41   19   89 1    
    42   20   21 2    
    43   20   22 1    
    44   22   23 1    
    45   22   24 1    
    46   22   90 1    
    47   23   91 1    
    48   23   92 1    
    49   23   93 1    
    50   24   25 am   BACKBONE|DICT|INTERRES
    51   24   94 1    
    52   25   26 2    
    53   25   27 1    
    54   27   28 1    
    55   27   29 1    
    56   27   95 1    
    57   28   96 1    
    58   28   97 1    
    59   28   98 1    
    60   29   30 am   BACKBONE|DICT|INTERRES
    61   29   99 1    
    62   30   31 2    
    63   30   32 1    
    64   32   33 1    
    65   32   34 1    
    66   32  100 1    
    67   33  101 1    
    68   33  102 1    
    69   33  103 1    
    70   34   35 am   BACKBONE|DICT|INTERRES
    71   34  104 1    
    72   35   36 2    
    73   37   38 2    
    74   37   39 am   BACKBONE|DICT|INTERRES
    75   39   40 1    
    76   39  105 1    
    77   40   41 1    
    78   40   42 1    
    79   40  106 1    
    80   41  107 1    
    81   41  108 1    
    82   41  109 1    
    83   42   43 2    
    84   42   44 am   BACKBONE|DICT|INTERRES
    85   44   45 1    
    86   44  110 1    
    87   45   46 1    
    88   45   47 1    
    89   45  111 1    
    90   46  112 1    
    91   46  113 1    
    92   46  114 1    
    93   47   48 2    
    94   47   49 am   BACKBONE|DICT|INTERRES
    95   49   50 1    
    96   49  115 1    
    97   50   51 1    
    98   50   52 1    
    99   50  116 1    
   100   51  117 1    
   101   51  118 1    
   102   51  119 1    
   103   52   53 2    
   104   52   54 am   BACKBONE|DICT|INTERRES
   105   54   55 1    
   106   54  120 1    
   107   55   56 1    
   108   55   57 1    
   109   55  121 1    
   110   56  122 1    
   111   56  123 1    
   112   56  124 1    
   113   57   58 2    
   114   57   59 am   BACKBONE|DICT|INTERRES
   115   59   60 1    
   116   59  125 1    
   117   60   61 1    
   118   60   62 1    
   119   60  126 1    
   120   61  127 1    
   121   61  128 1    
   122   61  129 1    
   123   62   63 2    
   124   62   64 am   BACKBONE|DICT|INTERRES
   125   64   65 1    
   126   64  130 1    
   127   65   66 1    
   128   65   69 1    
   129   65  131 1    
   130   66   67 am   BACKBONE|DICT|INTERRES
   131   66   68 2    
   132   67  132 1    
   133   67  133 1    
   134   69   70 1    
   135   69  134 1    
   136   69  135 1    
   137   70   71 1    
   138   71  136 1    
   139   71  137 1    
@<TRIPOS>SUBSTRUCTURE
     1 UNK         1 GROUP             0       ****    0 ROOT    
