@<TRIPOS>MOLECULE
3R136
137   139    1
SMALL
USER_CHARGES


@<TRIPOS>ATOM
      1 CA         28.7152   22.2878   -1.2754 C.3       0 UNK        -0.1979 
      2 C          28.5078   23.3137   -0.1727 C.2       0 UNK         0.4864 
      3 O          28.2320   24.4777   -0.4659 O.2       0 UNK        -0.5359 
      4 N          28.6423   22.9027    1.0925 N.am      1 UNK        -0.4318 
      5 CA         28.4293   23.7566    2.2624 C.3       1 UNK         0.0824 
      6 C6         29.1258   23.1719    3.5210 C.3       12 UNK        -0.0944 
      7 S7         29.9025   24.4655    4.5450 S.3       12 UNK        -0.2672 
      8 C8         31.6480   23.9098    4.6324 C.3       12 UNK         0.0333 
      9 C9         32.5505   24.3165    3.4611 C.ar      12 UNK        -0.0807 
     10 C10        33.9367   24.3183    3.6517 C.ar      12 UNK        -0.0894 
     11 C11        34.8060   24.6702    2.6128 C.ar      12 UNK        -0.0804 
     12 C12        34.2793   25.0269    1.3673 C.ar      12 UNK        -0.0824 
     13 C13        32.8993   25.0062    1.1486 C.ar      12 UNK        -0.0762 
     14 C14        32.0488   24.6483    2.1972 C.ar      12 UNK        -0.0782 
     15 C15        32.3301   25.3157   -0.2324 C.3       12 UNK         0.0230 
     16 S16        32.0710   27.0987   -0.4961 S.3       12 UNK        -0.2608 
     17 C17        30.5809   27.4188    0.5023 C.3       12 UNK        -0.0989 
     18 CA         29.4188   28.0293   -0.3172 C.3       5 UNK         0.0716 
     19 N          28.8664   27.1035   -1.2999 N.am      5 UNK        -0.4135 
     20 C          28.4138   27.4620   -2.5079 C.2       4 UNK         0.5031 
     21 O          28.5252   28.5934   -2.9821 O.2       4 UNK        -0.5229 
     22 CA         27.6737   26.3802   -3.3059 C.3       4 UNK         0.0329 
     23 CB         28.6606   25.3518   -3.8839 C.3       4 UNK        -0.2001 
     24 N          26.6940   25.7018   -2.4576 N.am      4 UNK        -0.4303 
     25 C          25.4447   26.1301   -2.2398 C.2       3 UNK         0.5044 
     26 O          24.9465   27.1135   -2.7882 O.2       3 UNK        -0.5152 
     27 CA         24.6201   25.3375   -1.2205 C.3       3 UNK         0.0319 
     28 CB         24.5834   23.8280   -1.5319 C.3       3 UNK        -0.2001 
     29 N          25.1416   25.5715    0.1240 N.am      3 UNK        -0.4354 
     30 C          24.4145   25.5242    1.2487 C.2       2 UNK         0.4964 
     31 O          23.2073   25.2762    1.2712 O.2       2 UNK        -0.5047 
     32 CA         25.1659   25.8054    2.5662 C.3       2 UNK         0.0288 
     33 CB         24.4009   25.3399    3.8246 C.3       2 UNK        -0.2113 
     34 N          26.5386   25.2873    2.5455 N.am      2 UNK        -0.4145 
     35 C          26.9235   24.0041    2.4700 C.2       1 UNK         0.5006 
     36 O          26.1580   23.0384    2.5272 O.2       1 UNK        -0.5103 
     37 C          28.2812   28.4226    0.6329 C.2       5 UNK         0.5055 
     38 O          27.6923   27.5413    1.2648 O.2       5 UNK        -0.5220 
     39 N          28.0357   29.7308    0.7608 N.am      6 UNK        -0.4450 
     40 CA         27.2872   30.3157    1.8744 C.3       6 UNK         0.0367 
     41 CB         26.8537   31.7388    1.4852 C.3       6 UNK        -0.1929 
     42 C          28.1693   30.3483    3.1347 C.2       6 UNK         0.5070 
     43 O          29.3895   30.2074    3.0271 O.2       6 UNK        -0.5237 
     44 N          27.5626   30.5906    4.3032 N.am      7 UNK        -0.4739 
     45 CA         28.2396   30.6184    5.6099 C.3       7 UNK         0.0276 
     46 CB         27.2024   30.8922    6.7109 C.3       7 UNK        -0.1927 
     47 C          29.4154   31.6119    5.7207 C.2       7 UNK         0.5013 
     48 O          30.3448   31.3590    6.4867 O.2       7 UNK        -0.5193 
     49 N          29.3641   32.7045    4.9461 N.am      8 UNK        -0.4253 
     50 CA         30.4366   33.6962    4.8333 C.3       8 UNK         0.0242 
     51 CB         29.8369   35.0246    4.3427 C.3       8 UNK        -0.2000 
     52 C          31.5872   33.2570    3.9056 C.2       8 UNK         0.4948 
     53 O          32.6942   33.7775    4.0490 O.2       8 UNK        -0.5275 
     54 N          31.3133   32.3428    2.9641 N.am      9 UNK        -0.4246 
     55 CA         32.2799   31.8270    1.9897 C.3       9 UNK         0.0261 
     56 CB         31.5758   31.6288    0.6367 C.3       9 UNK        -0.1959 
     57 C          32.9152   30.5061    2.4514 C.2       9 UNK         0.5033 
     58 O          34.0731   30.2489    2.1187 O.2       9 UNK        -0.5390 
     59 N          32.1450   29.6944    3.1883 N.am      10 UNK        -0.4215 
     60 CA         32.5356   28.4041    3.7543 C.3       10 UNK         0.0240 
     61 CB         31.3174   27.8034    4.4720 C.3       10 UNK        -0.1982 
     62 C          33.7229   28.5028    4.7257 C.2       10 UNK         0.4970 
     63 O          33.8877   29.5192    5.4045 O.2       10 UNK        -0.4916 
     64 N          34.5043   27.4202    4.7937 N.am      11 UNK        -0.4279 
     65 CA         35.7080   27.3048    5.6324 C.3       11 UNK         0.1003 
     66 C          35.4420   27.2183    7.1646 C.2       11 UNK         0.5709 
     67 N          34.2127   27.0039    7.6189 N.am      11 UNK        -0.7358 
     68 O          36.3723   27.3513    7.9563 O.2       11 UNK        -0.4999 
     69 C69        36.6241   26.1406    5.1714 C.3       12 UNK        -0.0954 
     70 S70        37.0157   26.1853    3.3879 S.3       12 UNK        -0.2268 
     71 C71        36.3154   24.6071    2.8102 C.3       12 UNK         0.0203 
     72 H72        28.8782   21.2874   -0.8749 H         1 UNK         0.0888 
     73 H73        27.8432   22.2539   -1.9275 H         1 UNK         0.0888 
     74 H74        29.5817   22.5579   -1.8781 H         1 UNK         0.0888 
     75 H75        28.8225   21.9276    1.2839 H         1 UNK         0.3017 
     76 H76        28.8719   24.7260    2.0294 H         1 UNK         0.0873 
     77 H77        29.9049   22.4660    3.2286 H         1 UNK         0.0745 
     78 H78        28.4369   22.5939    4.1406 H         1 UNK         0.0745 
     79 H79        31.6809   22.8259    4.7503 H         1 UNK         0.0705 
     80 H80        32.0660   24.3232    5.5516 H         1 UNK         0.0705 
     81 H81        34.3407   24.0242    4.6107 H         1 UNK         0.1334 
     82 H82        34.9456   25.2920    0.5575 H         1 UNK         0.1417 
     83 H83        30.9928   24.6124    2.0106 H         1 UNK         0.1562 
     84 H84        31.3914   24.7828   -0.3930 H         1 UNK         0.0748 
     85 H85        33.0159   24.9488   -0.9975 H         1 UNK         0.0748 
     86 H86        30.8751   28.0993    1.3019 H         1 UNK         0.0940 
     87 H87        30.2535   26.5034    0.9935 H         1 UNK         0.0940 
     88 H88        29.7942   28.9254   -0.8165 H         1 UNK         0.0703 
     89 H89        28.6886   26.1565   -0.9704 H         1 UNK         0.3081 
     90 H90        27.1589   26.8615   -4.1405 H         1 UNK         0.0719 
     91 H91        29.3822   25.8353   -4.5437 H         1 UNK         0.0809 
     92 H92        29.2256   24.8425   -3.1025 H         1 UNK         0.0809 
     93 H93        28.1425   24.5931   -4.4705 H         1 UNK         0.0809 
     94 H94        27.0537   24.9455   -1.8834 H         1 UNK         0.2990 
     95 H95        23.5985   25.7201   -1.2778 H         1 UNK         0.0690 
     96 H96        23.8650   23.3141   -0.8930 H         1 UNK         0.0788 
     97 H97        25.5533   23.3541   -1.3812 H         1 UNK         0.0788 
     98 H98        24.2834   23.6474   -2.5650 H         1 UNK         0.0788 
     99 H99        26.1225   25.8143    0.1921 H         1 UNK         0.2993 
    100 H100       25.2587   26.8910    2.6258 H         1 UNK         0.0949 
    101 H101       23.4437   25.8555    3.9109 H         1 UNK         0.0767 
    102 H102       24.1902   24.2705    3.8017 H         1 UNK         0.0767 
    103 H103       24.9654   25.5524    4.7325 H         1 UNK         0.0767 
    104 H104       27.2408   26.0083    2.3996 H         1 UNK         0.3013 
    105 H105       28.5699   30.3773    0.1998 H         1 UNK         0.3121 
    106 H106       26.4021   29.7087    2.0768 H         1 UNK         0.0774 
    107 H107       27.7105   32.3907    1.3082 H         1 UNK         0.0815 
    108 H108       26.2463   31.7327    0.5799 H         1 UNK         0.0815 
    109 H109       26.2515   32.1977    2.2703 H         1 UNK         0.0815 
    110 H110       26.5604   30.7186    4.3129 H         1 UNK         0.2987 
    111 H111       28.6551   29.6220    5.7755 H         1 UNK         0.0949 
    112 H112       26.4261   30.1270    6.7257 H         1 UNK         0.0806 
    113 H113       27.6699   30.8939    7.6968 H         1 UNK         0.0806 
    114 H114       26.7189   31.8609    6.5782 H         1 UNK         0.0806 
    115 H115       28.5508   32.8363    4.3628 H         1 UNK         0.3010 
    116 H116       30.8630   33.8629    5.8252 H         1 UNK         0.0829 
    117 H117       29.3884   34.9258    3.3533 H         1 UNK         0.0813 
    118 H118       30.6036   35.7979    4.2767 H         1 UNK         0.0813 
    119 H119       29.0696   35.3902    5.0256 H         1 UNK         0.0813 
    120 H120       30.4010   31.9007    2.9649 H         1 UNK         0.3038 
    121 H121       33.0841   32.5522    1.8476 H         1 UNK         0.0769 
    122 H122       31.1498   32.5627    0.2701 H         1 UNK         0.0811 
    123 H123       30.7733   30.8949    0.7040 H         1 UNK         0.0811 
    124 H124       32.2780   31.2730   -0.1187 H         1 UNK         0.0811 
    125 H125       31.1786   29.9717    3.3429 H         1 UNK         0.3204 
    126 H126       32.8184   27.7508    2.9258 H         1 UNK         0.0748 
    127 H127       30.9403   28.4709    5.2479 H         1 UNK         0.0771 
    128 H128       30.5015   27.6030    3.7769 H         1 UNK         0.0771 
    129 H129       31.5727   26.8602    4.9536 H         1 UNK         0.0771 
    130 H130       34.3064   26.6278    4.1991 H         1 UNK         0.2980 
    131 H131       36.2729   28.2278    5.4881 H         1 UNK         0.0545 
    132 H132       34.0569   26.9541    8.6132 H         1 UNK         0.3459 
    133 H133       33.4408   26.9087    6.9804 H         1 UNK         0.3459 
    134 H134       36.1776   25.1796    5.4282 H         1 UNK         0.0616 
    135 H135       37.5735   26.1771    5.7087 H         1 UNK         0.0616 
    136 H136       36.5776   23.8086    3.5060 H         1 UNK         0.0634 
    137 H137       36.7952   24.3458    1.8658 H         1 UNK         0.0634 
@<TRIPOS>BOND
     1    1    2 1    
     2    1   72 1    
     3    1   73 1    
     4    1   74 1    
     5    2    3 2    
     6    2    4 am   BACKBONE|DICT|INTERRES
     7    4    5 1    
     8    4   75 1    
     9    5    6 1    
    10    5   35 1    
    11    5   76 1    
    12    6    7 1    
    13    6   77 1    
    14    6   78 1    
    15    7    8 1    
    16    8    9 1    
    17    8   79 1    
    18    8   80 1    
    19    9   10 ar   
    20    9   14 ar   
    21   10   11 ar   
    22   10   81 1    
    23   11   12 ar   
    24   11   71 1    
    25   12   13 ar   
    26   12   82 1    
    27   13   14 ar   
    28   13   15 1    
    29   14   83 1    
    30   15   16 1    
    31   15   84 1    
    32   15   85 1    
    33   16   17 1    
    34   17   18 1    
    35   17   86 1    
    36   17   87 1    
    37   18   19 1    
    38   18   37 1    
    39   18   88 1    
    40   19   20 am   BACKBONE|DICT|INTERRES
    41   19   89 1    
    42   20   21 2    
    43   20   22 1    
    44   22   23 1    
    45   22   24 1    
    46   22   90 1    
    47   23   91 1    
    48   23   92 1    
    49   23   93 1    
    50   24   25 am   BACKBONE|DICT|INTERRES
    51   24   94 1    
    52   25   26 2    
    53   25   27 1    
    54   27   28 1    
    55   27   29 1    
    56   27   95 1    
    57   28   96 1    
    58   28   97 1    
    59   28   98 1    
    60   29   30 am   BACKBONE|DICT|INTERRES
    61   29   99 1    
    62   30   31 2    
    63   30   32 1    
    64   32   33 1    
    65   32   34 1    
    66   32  100 1    
    67   33  101 1    
    68   33  102 1    
    69   33  103 1    
    70   34   35 am   BACKBONE|DICT|INTERRES
    71   34  104 1    
    72   35   36 2    
    73   37   38 2    
    74   37   39 am   BACKBONE|DICT|INTERRES
    75   39   40 1    
    76   39  105 1    
    77   40   41 1    
    78   40   42 1    
    79   40  106 1    
    80   41  107 1    
    81   41  108 1    
    82   41  109 1    
    83   42   43 2    
    84   42   44 am   BACKBONE|DICT|INTERRES
    85   44   45 1    
    86   44  110 1    
    87   45   46 1    
    88   45   47 1    
    89   45  111 1    
    90   46  112 1    
    91   46  113 1    
    92   46  114 1    
    93   47   48 2    
    94   47   49 am   BACKBONE|DICT|INTERRES
    95   49   50 1    
    96   49  115 1    
    97   50   51 1    
    98   50   52 1    
    99   50  116 1    
   100   51  117 1    
   101   51  118 1    
   102   51  119 1    
   103   52   53 2    
   104   52   54 am   BACKBONE|DICT|INTERRES
   105   54   55 1    
   106   54  120 1    
   107   55   56 1    
   108   55   57 1    
   109   55  121 1    
   110   56  122 1    
   111   56  123 1    
   112   56  124 1    
   113   57   58 2    
   114   57   59 am   BACKBONE|DICT|INTERRES
   115   59   60 1    
   116   59  125 1    
   117   60   61 1    
   118   60   62 1    
   119   60  126 1    
   120   61  127 1    
   121   61  128 1    
   122   61  129 1    
   123   62   63 2    
   124   62   64 am   BACKBONE|DICT|INTERRES
   125   64   65 1    
   126   64  130 1    
   127   65   66 1    
   128   65   69 1    
   129   65  131 1    
   130   66   67 am   BACKBONE|DICT|INTERRES
   131   66   68 2    
   132   67  132 1    
   133   67  133 1    
   134   69   70 1    
   135   69  134 1    
   136   69  135 1    
   137   70   71 1    
   138   71  136 1    
   139   71  137 1    
@<TRIPOS>SUBSTRUCTURE
     1 UNK         1 GROUP             0       ****    0 ROOT    
