@<TRIPOS>MOLECULE
3R136
137   139    1
SMALL
USER_CHARGES


@<TRIPOS>ATOM
      1 CA         27.6653   18.5165   -0.1321 C.3       0 UNK        -0.1979 
      2 C          27.5555   19.9382   -0.6629 C.2       0 UNK         0.4864 
      3 O          26.6905   20.2134   -1.4954 O.2       0 UNK        -0.5359 
      4 N          28.4287   20.8383   -0.1900 N.am      1 UNK        -0.4318 
      5 CA         28.4770   22.2545   -0.5780 C.3       1 UNK         0.0824 
      6 C6         29.7633   22.9442   -0.0669 C.3       12 UNK        -0.0944 
      7 S7         31.2686   22.2646   -0.8424 S.3       12 UNK        -0.2672 
      8 C8         32.3139   21.8961    0.6032 C.3       12 UNK         0.0333 
      9 C9         32.6054   23.1444    1.4249 C.ar      12 UNK        -0.0807 
     10 C10        33.4763   24.1234    0.9380 C.ar      12 UNK        -0.0894 
     11 C11        33.7358   25.2853    1.6725 C.ar      12 UNK        -0.0804 
     12 C12        33.1095   25.4495    2.9160 C.ar      12 UNK        -0.0824 
     13 C13        32.2430   24.4750    3.4198 C.ar      12 UNK        -0.0762 
     14 C14        31.9991   23.3223    2.6707 C.ar      12 UNK        -0.0782 
     15 C15        31.5826   24.6477    4.7825 C.3       12 UNK         0.0230 
     16 S16        30.6902   26.2265    4.9553 S.3       12 UNK        -0.2608 
     17 C17        29.4329   26.1267    3.6337 C.3       12 UNK        -0.0989 
     18 CA         29.5415   27.2985    2.6248 C.3       5 UNK         0.0716 
     19 N          28.7942   27.0283    1.3914 N.am      5 UNK        -0.4135 
     20 C          28.9014   27.7588    0.2688 C.2       4 UNK         0.5031 
     21 O          29.7041   28.6811    0.1328 O.2       4 UNK        -0.5229 
     22 CA         27.9128   27.4668   -0.8769 C.3       4 UNK         0.0329 
     23 CB         28.5332   26.5373   -1.9295 C.3       4 UNK        -0.2001 
     24 N          26.6312   26.9287   -0.4113 N.am      4 UNK        -0.4303 
     25 C          25.7605   27.6397    0.3228 C.2       3 UNK         0.5044 
     26 O          25.9349   28.8232    0.6112 O.2       3 UNK        -0.5152 
     27 CA         24.5151   26.9248    0.8778 C.3       3 UNK         0.0319 
     28 CB         23.2911   27.2290    0.0003 C.3       3 UNK        -0.2001 
     29 N          24.6510   25.4737    1.0295 N.am      3 UNK        -0.4354 
     30 C          25.5793   24.8381    1.7586 C.2       2 UNK         0.4964 
     31 O          26.4683   25.4148    2.3882 O.2       2 UNK        -0.5047 
     32 CA         25.5491   23.2964    1.7420 C.3       2 UNK         0.0288 
     33 CB         24.2726   22.6958    1.1087 C.3       2 UNK        -0.2113 
     34 N          26.7380   22.7273    1.0956 N.am      2 UNK        -0.4145 
     35 C          27.2320   23.0388   -0.1152 C.2       1 UNK         0.5006 
     36 O          26.7525   23.8986   -0.8580 O.2       1 UNK        -0.5103 
     37 C          29.0924   28.6342    3.2559 C.2       5 UNK         0.5055 
     38 O          29.9371   29.4337    3.6651 O.2       5 UNK        -0.5220 
     39 N          27.7707   28.8651    3.2891 N.am      6 UNK        -0.4450 
     40 CA         27.1580   30.1032    3.7731 C.3       6 UNK         0.0367 
     41 CB         25.6410   29.9140    3.9324 C.3       6 UNK        -0.1929 
     42 C          27.4751   31.3027    2.8665 C.2       6 UNK         0.5070 
     43 O          27.7966   32.3722    3.3815 O.2       6 UNK        -0.5237 
     44 N          27.4359   31.0973    1.5416 N.am      7 UNK        -0.4739 
     45 CA         27.8160   32.0923    0.5315 C.3       7 UNK         0.0276 
     46 CB         27.4791   31.5629   -0.8706 C.3       7 UNK        -0.1927 
     47 C          29.2983   32.4996    0.6141 C.2       7 UNK         0.5013 
     48 O          29.6121   33.6774    0.4403 O.2       7 UNK        -0.5193 
     49 N          30.1739   31.5311    0.9187 N.am      8 UNK        -0.4253 
     50 CA         31.5970   31.7450    1.1972 C.3       8 UNK         0.0242 
     51 CB         32.3417   30.4102    1.0323 C.3       8 UNK        -0.2000 
     52 C          31.8749   32.3436    2.5914 C.2       8 UNK         0.4948 
     53 O          33.0193   32.7138    2.8555 O.2       8 UNK        -0.5275 
     54 N          30.8478   32.4160    3.4534 N.am      9 UNK        -0.4246 
     55 CA         30.8736   32.8666    4.8495 C.3       9 UNK         0.0261 
     56 CB         31.2041   34.3723    4.9375 C.3       9 UNK        -0.1959 
     57 C          31.7696   31.9896    5.7473 C.2       9 UNK         0.5033 
     58 O          32.4447   32.5207    6.6313 O.2       9 UNK        -0.5390 
     59 N          31.7255   30.6690    5.5071 N.am      10 UNK        -0.4215 
     60 CA         32.5082   29.5900    6.1192 C.3       10 UNK         0.0240 
     61 CB         32.3196   29.5271    7.6480 C.3       10 UNK        -0.1982 
     62 C          33.9946   29.6404    5.7226 C.2       10 UNK         0.4970 
     63 O          34.7046   30.5847    6.0714 O.2       10 UNK        -0.4916 
     64 N          34.4446   28.5977    5.0153 N.am      11 UNK        -0.4279 
     65 CA         35.8302   28.4454    4.5356 C.3       11 UNK         0.1003 
     66 C          36.8687   28.0907    5.6407 C.2       11 UNK         0.5709 
     67 N          36.4602   27.7235    6.8499 N.am      11 UNK        -0.7358 
     68 O          38.0711   28.1567    5.3961 O.2       11 UNK        -0.4999 
     69 C69        35.9284   27.4502    3.3484 C.3       12 UNK        -0.0954 
     70 S70        34.8447   27.9076    1.9537 S.3       12 UNK        -0.2268 
     71 C71        34.6958   26.3160    1.0700 C.3       12 UNK         0.0203 
     72 H72        26.7356   18.2259    0.3566 H         1 UNK         0.0888 
     73 H73        27.8506   17.8234   -0.9522 H         1 UNK         0.0888 
     74 H74        28.4750   18.4111    0.5897 H         1 UNK         0.0888 
     75 H75        29.1362   20.5404    0.4659 H         1 UNK         0.3017 
     76 H76        28.4811   22.2949   -1.6697 H         1 UNK         0.0873 
     77 H77        29.8237   22.8553    1.0180 H         1 UNK         0.0745 
     78 H78        29.7543   24.0141   -0.2748 H         1 UNK         0.0745 
     79 H79        33.2539   21.4626    0.2588 H         1 UNK         0.0705 
     80 H80        31.8293   21.1310    1.2117 H         1 UNK         0.0705 
     81 H81        33.9452   23.9826   -0.0266 H         1 UNK         0.1334 
     82 H82        33.2814   26.3351    3.5055 H         1 UNK         0.1417 
     83 H83        31.3319   22.5630    3.0556 H         1 UNK         0.1562 
     84 H84        32.3521   24.5944    5.5537 H         1 UNK         0.0748 
     85 H85        30.8869   23.8323    4.9869 H         1 UNK         0.0748 
     86 H86        28.4441   26.0898    4.0948 H         1 UNK         0.0940 
     87 H87        29.5450   25.1769    3.1088 H         1 UNK         0.0940 
     88 H88        30.5917   27.4048    2.3422 H         1 UNK         0.0703 
     89 H89        28.0654   26.3261    1.4549 H         1 UNK         0.3081 
     90 H90        27.7051   28.4173   -1.3709 H         1 UNK         0.0719 
     91 H91        27.8718   26.4147   -2.7873 H         1 UNK         0.0809 
     92 H92        29.4750   26.9433   -2.3016 H         1 UNK         0.0809 
     93 H93        28.7415   25.5490   -1.5279 H         1 UNK         0.0809 
     94 H94        26.4429   25.9488   -0.5997 H         1 UNK         0.2990 
     95 H95        24.3309   27.3354    1.8726 H         1 UNK         0.0690 
     96 H96        23.3995   26.8117   -1.0017 H         1 UNK         0.0788 
     97 H97        23.1460   28.3050   -0.1085 H         1 UNK         0.0788 
     98 H98        22.3777   26.8246    0.4371 H         1 UNK         0.0788 
     99 H99        23.9904   24.9060    0.5185 H         1 UNK         0.2993 
    100 H100       25.5794   22.9858    2.7876 H         1 UNK         0.0949 
    101 H101       24.1945   22.9191    0.0437 H         1 UNK         0.0767 
    102 H102       24.2640   21.6104    1.2120 H         1 UNK         0.0767 
    103 H103       23.3715   23.0666    1.5994 H         1 UNK         0.0767 
    104 H104       27.2270   22.0236    1.6301 H         1 UNK         0.3013 
    105 H105       27.1476   28.1666    2.9102 H         1 UNK         0.3121 
    106 H106       27.5761   30.3158    4.7597 H         1 UNK         0.0774 
    107 H107       25.1805   30.8140    4.3420 H         1 UNK         0.0815 
    108 H108       25.1517   29.7059    2.9809 H         1 UNK         0.0815 
    109 H109       25.4119   29.0952    4.6146 H         1 UNK         0.0815 
    110 H110       27.0846   30.2054    1.2000 H         1 UNK         0.2987 
    111 H111       27.2171   32.9876    0.7121 H         1 UNK         0.0949 
    112 H112       28.0924   30.7009   -1.1317 H         1 UNK         0.0806 
    113 H113       26.4322   31.2679   -0.9461 H         1 UNK         0.0806 
    114 H114       27.6572   32.3280   -1.6273 H         1 UNK         0.0806 
    115 H115       29.8430   30.5728    0.9695 H         1 UNK         0.3010 
    116 H116       31.9903   32.4475    0.4595 H         1 UNK         0.0829 
    117 H117       33.4138   30.5392    1.1851 H         1 UNK         0.0813 
    118 H118       31.9978   29.6644    1.7503 H         1 UNK         0.0813 
    119 H119       32.2057   29.9981    0.0324 H         1 UNK         0.0813 
    120 H120       29.9438   32.0906    3.1324 H         1 UNK         0.3038 
    121 H121       29.8578   32.7349    5.2249 H         1 UNK         0.0769 
    122 H122       32.2315   34.5801    4.6374 H         1 UNK         0.0811 
    123 H123       31.0836   34.7396    5.9573 H         1 UNK         0.0811 
    124 H124       30.5422   34.9605    4.3020 H         1 UNK         0.0811 
    125 H125       31.1072   30.3561    4.7581 H         1 UNK         0.3204 
    126 H126       32.0835   28.6733    5.7107 H         1 UNK         0.0748 
    127 H127       32.8019   28.6405    8.0610 H         1 UNK         0.0771 
    128 H128       32.7527   30.3922    8.1509 H         1 UNK         0.0771 
    129 H129       31.2640   29.4764    7.9149 H         1 UNK         0.0771 
    130 H130       33.8093   27.8529    4.7779 H         1 UNK         0.2980 
    131 H131       36.1396   29.4207    4.1544 H         1 UNK         0.0545 
    132 H132       37.1453   27.5018    7.5549 H         1 UNK         0.3459 
    133 H133       35.4784   27.6703    7.0653 H         1 UNK         0.3459 
    134 H134       36.9500   27.4107    2.9658 H         1 UNK         0.0616 
    135 H135       35.6899   26.4386    3.6804 H         1 UNK         0.0616 
    136 H136       35.6875   25.8704    0.9796 H         1 UNK         0.0634 
    137 H137       34.3656   26.5392    0.0545 H         1 UNK         0.0634 
@<TRIPOS>BOND
     1    1    2 1    
     2    1   72 1    
     3    1   73 1    
     4    1   74 1    
     5    2    3 2    
     6    2    4 am   BACKBONE|DICT|INTERRES
     7    4    5 1    
     8    4   75 1    
     9    5    6 1    
    10    5   35 1    
    11    5   76 1    
    12    6    7 1    
    13    6   77 1    
    14    6   78 1    
    15    7    8 1    
    16    8    9 1    
    17    8   79 1    
    18    8   80 1    
    19    9   10 ar   
    20    9   14 ar   
    21   10   11 ar   
    22   10   81 1    
    23   11   12 ar   
    24   11   71 1    
    25   12   13 ar   
    26   12   82 1    
    27   13   14 ar   
    28   13   15 1    
    29   14   83 1    
    30   15   16 1    
    31   15   84 1    
    32   15   85 1    
    33   16   17 1    
    34   17   18 1    
    35   17   86 1    
    36   17   87 1    
    37   18   19 1    
    38   18   37 1    
    39   18   88 1    
    40   19   20 am   BACKBONE|DICT|INTERRES
    41   19   89 1    
    42   20   21 2    
    43   20   22 1    
    44   22   23 1    
    45   22   24 1    
    46   22   90 1    
    47   23   91 1    
    48   23   92 1    
    49   23   93 1    
    50   24   25 am   BACKBONE|DICT|INTERRES
    51   24   94 1    
    52   25   26 2    
    53   25   27 1    
    54   27   28 1    
    55   27   29 1    
    56   27   95 1    
    57   28   96 1    
    58   28   97 1    
    59   28   98 1    
    60   29   30 am   BACKBONE|DICT|INTERRES
    61   29   99 1    
    62   30   31 2    
    63   30   32 1    
    64   32   33 1    
    65   32   34 1    
    66   32  100 1    
    67   33  101 1    
    68   33  102 1    
    69   33  103 1    
    70   34   35 am   BACKBONE|DICT|INTERRES
    71   34  104 1    
    72   35   36 2    
    73   37   38 2    
    74   37   39 am   BACKBONE|DICT|INTERRES
    75   39   40 1    
    76   39  105 1    
    77   40   41 1    
    78   40   42 1    
    79   40  106 1    
    80   41  107 1    
    81   41  108 1    
    82   41  109 1    
    83   42   43 2    
    84   42   44 am   BACKBONE|DICT|INTERRES
    85   44   45 1    
    86   44  110 1    
    87   45   46 1    
    88   45   47 1    
    89   45  111 1    
    90   46  112 1    
    91   46  113 1    
    92   46  114 1    
    93   47   48 2    
    94   47   49 am   BACKBONE|DICT|INTERRES
    95   49   50 1    
    96   49  115 1    
    97   50   51 1    
    98   50   52 1    
    99   50  116 1    
   100   51  117 1    
   101   51  118 1    
   102   51  119 1    
   103   52   53 2    
   104   52   54 am   BACKBONE|DICT|INTERRES
   105   54   55 1    
   106   54  120 1    
   107   55   56 1    
   108   55   57 1    
   109   55  121 1    
   110   56  122 1    
   111   56  123 1    
   112   56  124 1    
   113   57   58 2    
   114   57   59 am   BACKBONE|DICT|INTERRES
   115   59   60 1    
   116   59  125 1    
   117   60   61 1    
   118   60   62 1    
   119   60  126 1    
   120   61  127 1    
   121   61  128 1    
   122   61  129 1    
   123   62   63 2    
   124   62   64 am   BACKBONE|DICT|INTERRES
   125   64   65 1    
   126   64  130 1    
   127   65   66 1    
   128   65   69 1    
   129   65  131 1    
   130   66   67 am   BACKBONE|DICT|INTERRES
   131   66   68 2    
   132   67  132 1    
   133   67  133 1    
   134   69   70 1    
   135   69  134 1    
   136   69  135 1    
   137   70   71 1    
   138   71  136 1    
   139   71  137 1    
@<TRIPOS>SUBSTRUCTURE
     1 UNK         1 GROUP             0       ****    0 ROOT    
