@<TRIPOS>MOLECULE
3R136
137   139    1
SMALL
USER_CHARGES


@<TRIPOS>ATOM
      1 CA         31.1628   23.9073    5.6244 C.3       0 UNK        -0.1979 
      2 C          30.2045   24.2979    4.5083 C.2       0 UNK         0.4864 
      3 O          30.4598   25.2768    3.8121 O.2       0 UNK        -0.5359 
      4 N          29.1235   23.5234    4.3387 N.am      1 UNK        -0.4318 
      5 CA         28.0587   23.6618    3.3317 C.3       1 UNK         0.0824 
      6 C6         28.5644   23.7294    1.8606 C.3       12 UNK        -0.0944 
      7 S7         29.5769   22.2690    1.4315 S.3       12 UNK        -0.2672 
      8 C8         30.1534   22.6629   -0.2576 C.3       12 UNK         0.0333 
      9 C9         31.2918   23.6838   -0.3850 C.ar      12 UNK        -0.0807 
     10 C10        31.8913   24.3079    0.7180 C.ar      12 UNK        -0.0894 
     11 C11        32.9703   25.1819    0.5520 C.ar      12 UNK        -0.0804 
     12 C12        33.4438   25.4535   -0.7340 C.ar      12 UNK        -0.0824 
     13 C13        32.8620   24.8392   -1.8481 C.ar      12 UNK        -0.0762 
     14 C14        31.7874   23.9623   -1.6649 C.ar      12 UNK        -0.0782 
     15 C15        33.4472   25.0611   -3.2396 C.3       12 UNK         0.0230 
     16 S16        32.3483   26.0043   -4.3462 S.3       12 UNK        -0.2608 
     17 C17        32.3028   27.6348   -3.5260 C.3       12 UNK        -0.0989 
     18 CA         30.8894   28.2730   -3.5064 C.3       5 UNK         0.0716 
     19 N          29.8422   27.3207   -3.1064 N.am      5 UNK        -0.4135 
     20 C          28.5222   27.5594   -3.1181 C.2       4 UNK         0.5031 
     21 O          28.0168   28.5974   -3.5487 O.2       4 UNK        -0.5229 
     22 CA         27.6048   26.4803   -2.5279 C.3       4 UNK         0.0329 
     23 CB         28.3327   25.1894   -2.0978 C.3       4 UNK        -0.2001 
     24 N          26.8983   27.0656   -1.3912 N.am      4 UNK        -0.4303 
     25 C          25.7642   26.6018   -0.8632 C.2       3 UNK         0.5044 
     26 O          25.1767   25.5928   -1.2613 O.2       3 UNK        -0.5152 
     27 CA         25.1843   27.3809    0.3203 C.3       3 UNK         0.0319 
     28 CB         23.8583   28.0658   -0.0657 C.3       3 UNK        -0.2001 
     29 N          24.9934   26.4301    1.4089 N.am      3 UNK        -0.4354 
     30 C          24.7405   26.7287    2.6877 C.2       2 UNK         0.4964 
     31 O          24.5545   27.8691    3.1115 O.2       2 UNK        -0.5047 
     32 CA         24.7107   25.5433    3.6661 C.3       2 UNK         0.0288 
     33 CB         23.3494   24.8294    3.6179 C.3       2 UNK        -0.2113 
     34 N          25.7853   24.5764    3.4124 N.am      2 UNK        -0.4145 
     35 C          27.0812   24.8114    3.6679 C.2       1 UNK         0.5006 
     36 O          27.4862   25.8699    4.1549 O.2       1 UNK        -0.5103 
     37 C          30.8923   29.5168   -2.5929 C.2       5 UNK         0.5055 
     38 O          31.1069   30.6355   -3.0620 O.2       5 UNK        -0.5220 
     39 N          30.6212   29.2725   -1.3079 N.am      6 UNK        -0.4450 
     40 CA         30.3146   30.2461   -0.2741 C.3       6 UNK         0.0367 
     41 CB         31.6116   30.7266    0.4079 C.3       6 UNK        -0.1929 
     42 C          29.3002   29.5574    0.6531 C.2       6 UNK         0.5070 
     43 O          28.3494   28.9552    0.1496 O.2       6 UNK        -0.5237 
     44 N          29.5194   29.6120    1.9672 N.am      7 UNK        -0.4739 
     45 CA         28.7532   28.9041    2.9887 C.3       7 UNK         0.0276 
     46 CB         27.4570   29.6728    3.3041 C.3       7 UNK        -0.1927 
     47 C          29.6332   28.7748    4.2355 C.2       7 UNK         0.5013 
     48 O          30.6427   29.4794    4.3325 O.2       7 UNK        -0.5193 
     49 N          29.2162   27.9201    5.1788 N.am      8 UNK        -0.4253 
     50 CA         29.9123   27.5629    6.4237 C.3       8 UNK         0.0242 
     51 CB         28.9694   26.7305    7.3075 C.3       8 UNK        -0.2000 
     52 C          30.5047   28.7313    7.2316 C.2       8 UNK         0.4948 
     53 O          31.6007   28.5895    7.7741 O.2       8 UNK        -0.5275 
     54 N          29.7986   29.8698    7.2655 N.am      9 UNK        -0.4246 
     55 CA         30.2385   31.1087    7.9146 C.3       9 UNK         0.0261 
     56 CB         29.0701   32.1079    7.9328 C.3       9 UNK        -0.1959 
     57 C          31.4842   31.7528    7.2725 C.2       9 UNK         0.5033 
     58 O          32.2088   32.4662    7.9683 O.2       9 UNK        -0.5390 
     59 N          31.7079   31.5028    5.9759 N.am      10 UNK        -0.4215 
     60 CA         32.8651   31.9726    5.2138 C.3       10 UNK         0.0240 
     61 CB         32.3886   32.5206    3.8605 C.3       10 UNK        -0.1982 
     62 C          33.8934   30.8492    5.0109 C.2       10 UNK         0.4970 
     63 O          35.0922   31.1199    5.0921 O.2       10 UNK        -0.4916 
     64 N          33.4201   29.6195    4.7606 N.am      11 UNK        -0.4279 
     65 CA         34.2478   28.4083    4.6513 C.3       11 UNK         0.1003 
     66 C          35.0056   28.0503    5.9626 C.2       11 UNK         0.5709 
     67 N          34.4239   28.2528    7.1391 N.am      11 UNK        -0.7358 
     68 O          36.1409   27.5835    5.9081 O.2       11 UNK        -0.4999 
     69 C69        33.4239   27.1897    4.1609 C.3       12 UNK        -0.0954 
     70 S70        32.9202   27.2781    2.4051 S.3       12 UNK        -0.2268 
     71 C71        33.6811   25.7461    1.7748 C.3       12 UNK         0.0203 
     72 H72        31.0117   22.8768    5.9448 H         1 UNK         0.0888 
     73 H73        32.1934   24.0050    5.2838 H         1 UNK         0.0888 
     74 H74        31.0266   24.5567    6.4878 H         1 UNK         0.0888 
     75 H75        28.9919   22.7487    4.9733 H         1 UNK         0.3017 
     76 H76        27.4843   22.7385    3.4246 H         1 UNK         0.0873 
     77 H77        27.7214   23.7661    1.1682 H         1 UNK         0.0745 
     78 H78        29.1392   24.6393    1.6817 H         1 UNK         0.0745 
     79 H79        29.2984   22.9792   -0.8516 H         1 UNK         0.0705 
     80 H80        30.4953   21.7281   -0.7039 H         1 UNK         0.0705 
     81 H81        31.5498   24.0982    1.7208 H         1 UNK         0.1334 
     82 H82        34.2922   26.1122   -0.8618 H         1 UNK         0.1417 
     83 H83        31.3528   23.4720   -2.5260 H         1 UNK         0.1562 
     84 H84        33.6501   24.0911   -3.6958 H         1 UNK         0.0748 
     85 H85        34.4101   25.5711   -3.1793 H         1 UNK         0.0748 
     86 H86        33.0027   28.2942   -4.0429 H         1 UNK         0.0940 
     87 H87        32.6902   27.5324   -2.5112 H         1 UNK         0.0940 
     88 H88        30.6508   28.6062   -4.5186 H         1 UNK         0.0703 
     89 H89        30.1695   26.4240   -2.7781 H         1 UNK         0.3081 
     90 H90        26.8784   26.2286   -3.3034 H         1 UNK         0.0719 
     91 H91        28.8956   24.7511   -2.9231 H         1 UNK         0.0809 
     92 H92        27.6204   24.4321   -1.7706 H         1 UNK         0.0809 
     93 H93        29.0196   25.3725   -1.2704 H         1 UNK         0.0809 
     94 H94        27.3346   27.8899   -0.9768 H         1 UNK         0.2990 
     95 H95        25.8982   28.1401    0.6441 H         1 UNK         0.0690 
     96 H96        23.4643   28.6700    0.7513 H         1 UNK         0.0788 
     97 H97        23.0951   27.3372   -0.3419 H         1 UNK         0.0788 
     98 H98        23.9994   28.7317   -0.9180 H         1 UNK         0.0788 
     99 H99        25.1155   25.4615    1.1449 H         1 UNK         0.2993 
    100 H100       24.8465   25.9461    4.6727 H         1 UNK         0.0949 
    101 H101       23.1589   24.3806    2.6422 H         1 UNK         0.0767 
    102 H102       23.2887   24.0409    4.3685 H         1 UNK         0.0767 
    103 H103       22.5364   25.5287    3.8190 H         1 UNK         0.0767 
    104 H104       25.5118   23.6837    3.0270 H         1 UNK         0.3013 
    105 H105       30.4134   28.3183   -1.0473 H         1 UNK         0.3121 
    106 H106       29.8096   31.1029   -0.7250 H         1 UNK         0.0774 
    107 H107       31.4046   31.5499    1.0898 H         1 UNK         0.0815 
    108 H108       32.3256   31.1009   -0.3258 H         1 UNK         0.0815 
    109 H109       32.1037   29.9302    0.9679 H         1 UNK         0.0815 
    110 H110       30.3530   30.0614    2.3251 H         1 UNK         0.2987 
    111 H111       28.5160   27.8991    2.6311 H         1 UNK         0.0949 
    112 H112       27.6638   30.6812    3.6644 H         1 UNK         0.0806 
    113 H113       26.8189   29.7552    2.4244 H         1 UNK         0.0806 
    114 H114       26.8742   29.1614    4.0712 H         1 UNK         0.0806 
    115 H115       28.4295   27.3217    4.9348 H         1 UNK         0.3010 
    116 H116       30.7483   26.9265    6.1371 H         1 UNK         0.0829 
    117 H117       28.6364   25.8283    6.7942 H         1 UNK         0.0813 
    118 H118       29.4680   26.4146    8.2250 H         1 UNK         0.0813 
    119 H119       28.0825   27.2967    7.5943 H         1 UNK         0.0813 
    120 H120       28.9122   29.8947    6.7824 H         1 UNK         0.3038 
    121 H121       30.4968   30.8661    8.9477 H         1 UNK         0.0769 
    122 H122       28.7491   32.3723    6.9244 H         1 UNK         0.0811 
    123 H123       29.3555   33.0327    8.4365 H         1 UNK         0.0811 
    124 H124       28.2093   31.7041    8.4661 H         1 UNK         0.0811 
    125 H125       31.0900   30.8560    5.4909 H         1 UNK         0.3204 
    126 H126       33.3640   32.7847    5.7470 H         1 UNK         0.0748 
    127 H127       31.7364   33.3842    3.9920 H         1 UNK         0.0771 
    128 H128       33.2306   32.8382    3.2438 H         1 UNK         0.0771 
    129 H129       31.8352   31.7668    3.3030 H         1 UNK         0.0771 
    130 H130       32.4179   29.4856    4.6539 H         1 UNK         0.2980 
    131 H131       35.0143   28.6132    3.9014 H         1 UNK         0.0545 
    132 H132       34.9297   28.0211    7.9784 H         1 UNK         0.3459 
    133 H133       33.4597   28.5630    7.2084 H         1 UNK         0.3459 
    134 H134       33.9890   26.2696    4.3170 H         1 UNK         0.0616 
    135 H135       32.5221   27.0783    4.7613 H         1 UNK         0.0616 
    136 H136       33.6699   24.9806    2.5519 H         1 UNK         0.0634 
    137 H137       34.7320   25.9377    1.5536 H         1 UNK         0.0634 
@<TRIPOS>BOND
     1    1    2 1    
     2    1   72 1    
     3    1   73 1    
     4    1   74 1    
     5    2    3 2    
     6    2    4 am   BACKBONE|DICT|INTERRES
     7    4    5 1    
     8    4   75 1    
     9    5    6 1    
    10    5   35 1    
    11    5   76 1    
    12    6    7 1    
    13    6   77 1    
    14    6   78 1    
    15    7    8 1    
    16    8    9 1    
    17    8   79 1    
    18    8   80 1    
    19    9   10 ar   
    20    9   14 ar   
    21   10   11 ar   
    22   10   81 1    
    23   11   12 ar   
    24   11   71 1    
    25   12   13 ar   
    26   12   82 1    
    27   13   14 ar   
    28   13   15 1    
    29   14   83 1    
    30   15   16 1    
    31   15   84 1    
    32   15   85 1    
    33   16   17 1    
    34   17   18 1    
    35   17   86 1    
    36   17   87 1    
    37   18   19 1    
    38   18   37 1    
    39   18   88 1    
    40   19   20 am   BACKBONE|DICT|INTERRES
    41   19   89 1    
    42   20   21 2    
    43   20   22 1    
    44   22   23 1    
    45   22   24 1    
    46   22   90 1    
    47   23   91 1    
    48   23   92 1    
    49   23   93 1    
    50   24   25 am   BACKBONE|DICT|INTERRES
    51   24   94 1    
    52   25   26 2    
    53   25   27 1    
    54   27   28 1    
    55   27   29 1    
    56   27   95 1    
    57   28   96 1    
    58   28   97 1    
    59   28   98 1    
    60   29   30 am   BACKBONE|DICT|INTERRES
    61   29   99 1    
    62   30   31 2    
    63   30   32 1    
    64   32   33 1    
    65   32   34 1    
    66   32  100 1    
    67   33  101 1    
    68   33  102 1    
    69   33  103 1    
    70   34   35 am   BACKBONE|DICT|INTERRES
    71   34  104 1    
    72   35   36 2    
    73   37   38 2    
    74   37   39 am   BACKBONE|DICT|INTERRES
    75   39   40 1    
    76   39  105 1    
    77   40   41 1    
    78   40   42 1    
    79   40  106 1    
    80   41  107 1    
    81   41  108 1    
    82   41  109 1    
    83   42   43 2    
    84   42   44 am   BACKBONE|DICT|INTERRES
    85   44   45 1    
    86   44  110 1    
    87   45   46 1    
    88   45   47 1    
    89   45  111 1    
    90   46  112 1    
    91   46  113 1    
    92   46  114 1    
    93   47   48 2    
    94   47   49 am   BACKBONE|DICT|INTERRES
    95   49   50 1    
    96   49  115 1    
    97   50   51 1    
    98   50   52 1    
    99   50  116 1    
   100   51  117 1    
   101   51  118 1    
   102   51  119 1    
   103   52   53 2    
   104   52   54 am   BACKBONE|DICT|INTERRES
   105   54   55 1    
   106   54  120 1    
   107   55   56 1    
   108   55   57 1    
   109   55  121 1    
   110   56  122 1    
   111   56  123 1    
   112   56  124 1    
   113   57   58 2    
   114   57   59 am   BACKBONE|DICT|INTERRES
   115   59   60 1    
   116   59  125 1    
   117   60   61 1    
   118   60   62 1    
   119   60  126 1    
   120   61  127 1    
   121   61  128 1    
   122   61  129 1    
   123   62   63 2    
   124   62   64 am   BACKBONE|DICT|INTERRES
   125   64   65 1    
   126   64  130 1    
   127   65   66 1    
   128   65   69 1    
   129   65  131 1    
   130   66   67 am   BACKBONE|DICT|INTERRES
   131   66   68 2    
   132   67  132 1    
   133   67  133 1    
   134   69   70 1    
   135   69  134 1    
   136   69  135 1    
   137   70   71 1    
   138   71  136 1    
   139   71  137 1    
@<TRIPOS>SUBSTRUCTURE
     1 UNK         1 GROUP             0       ****    0 ROOT    
