@<TRIPOS>MOLECULE
3R136
137   139    1
SMALL
USER_CHARGES


@<TRIPOS>ATOM
      1 CA         30.7611   19.2327    2.5752 C.3       0 UNK        -0.1979 
      2 C          29.7719   19.5870    1.4742 C.2       0 UNK         0.4864 
      3 O          29.7314   18.9093    0.4460 O.2       0 UNK        -0.5359 
      4 N          28.9829   20.6455    1.6806 N.am      1 UNK        -0.4318 
      5 CA         27.9764   21.1452    0.7460 C.3       1 UNK         0.0824 
      6 C6         28.5790   21.9762   -0.4293 C.3       12 UNK        -0.0944 
      7 S7         29.5857   23.4178    0.0782 S.3       12 UNK        -0.2672 
      8 C8         31.2686   22.7745   -0.1559 C.3       12 UNK         0.0333 
      9 C9         32.2789   23.6284    0.5903 C.ar      12 UNK        -0.0807 
     10 C10        32.4947   23.4166    1.9550 C.ar      12 UNK        -0.0894 
     11 C11        33.4230   24.1873    2.6607 C.ar      12 UNK        -0.0804 
     12 C12        34.1474   25.1714    1.9771 C.ar      12 UNK        -0.0824 
     13 C13        33.9252   25.4084    0.6176 C.ar      12 UNK        -0.0762 
     14 C14        32.9953   24.6270   -0.0747 C.ar      12 UNK        -0.0782 
     15 C15        34.6959   26.5110   -0.0957 C.3       12 UNK         0.0230 
     16 S16        33.6107   27.8133   -0.7666 S.3       12 UNK        -0.2608 
     17 C17        32.6979   28.3990    0.7066 C.3       12 UNK        -0.0989 
     18 CA         31.1633   28.2812    0.5104 C.3       5 UNK         0.0716 
     19 N          30.4475   28.4544    1.7717 N.am      5 UNK        -0.4135 
     20 C          29.2063   28.0230    2.0184 C.2       4 UNK         0.5031 
     21 O          28.5342   27.3459    1.2371 O.2       4 UNK        -0.5229 
     22 CA         28.5988   28.4744    3.3463 C.3       4 UNK         0.0329 
     23 CB         27.9070   29.8404    3.2095 C.3       4 UNK        -0.2001 
     24 N          27.6339   27.4853    3.8069 N.am      4 UNK        -0.4303 
     25 C          27.4697   27.1096    5.0803 C.2       3 UNK         0.5044 
     26 O          28.1088   27.6012    6.0128 O.2       3 UNK        -0.5152 
     27 CA         26.4302   26.0098    5.3811 C.3       3 UNK         0.0319 
     28 CB         25.2697   26.5813    6.2127 C.3       3 UNK        -0.2001 
     29 N          25.8808   25.3619    4.1839 N.am      3 UNK        -0.4354 
     30 C          26.5414   24.4840    3.4174 C.2       2 UNK         0.4964 
     31 O          27.6766   24.0781    3.6781 O.2       2 UNK        -0.5047 
     32 CA         25.8133   24.0167    2.1405 C.3       2 UNK         0.0288 
     33 CB         25.3939   25.2090    1.2586 C.3       2 UNK        -0.2113 
     34 N          26.6626   23.1374    1.3390 N.am      2 UNK        -0.4145 
     35 C          26.8803   21.8395    1.5768 C.2       1 UNK         0.5006 
     36 O          26.2657   21.1883    2.4258 O.2       1 UNK        -0.5103 
     37 C          30.6162   29.3185   -0.4887 C.2       5 UNK         0.5055 
     38 O          31.0971   30.4528   -0.5076 O.2       5 UNK        -0.5220 
     39 N          29.5686   28.9411   -1.2379 N.am      6 UNK        -0.4450 
     40 CA         28.8808   29.7434   -2.2640 C.3       6 UNK         0.0367 
     41 CB         29.7785   29.8820   -3.5116 C.3       6 UNK        -0.1929 
     42 C          28.3687   31.1110   -1.7571 C.2       6 UNK         0.5070 
     43 O          28.3303   32.0746   -2.5231 O.2       6 UNK        -0.5237 
     44 N          28.0194   31.1701   -0.4624 N.am      7 UNK        -0.4739 
     45 CA         27.6332   32.3564    0.3153 C.3       7 UNK         0.0276 
     46 CB         26.3376   32.9865   -0.2395 C.3       7 UNK        -0.1927 
     47 C          28.7559   33.4019    0.5062 C.2       7 UNK         0.5013 
     48 O          28.4637   34.4996    0.9836 O.2       7 UNK        -0.5193 
     49 N          30.0100   33.0673    0.1631 N.am      8 UNK        -0.4253 
     50 CA         31.1650   33.9583    0.3102 C.3       8 UNK         0.0242 
     51 CB         32.2615   33.5579   -0.6905 C.3       8 UNK        -0.2000 
     52 C          31.7208   33.9673    1.7432 C.2       8 UNK         0.4948 
     53 O          32.1630   35.0183    2.2091 O.2       8 UNK        -0.5275 
     54 N          31.6866   32.8112    2.4163 N.am      9 UNK        -0.4246 
     55 CA         32.1304   32.6154    3.7939 C.3       9 UNK         0.0261 
     56 CB         33.6626   32.4725    3.8449 C.3       9 UNK        -0.1959 
     57 C          31.4543   31.3576    4.3435 C.2       9 UNK         0.5033 
     58 O          31.2100   30.4250    3.5727 O.2       9 UNK        -0.5390 
     59 N          31.1790   31.3469    5.6545 N.am      10 UNK        -0.4215 
     60 CA         30.5885   30.2174    6.3784 C.3       10 UNK         0.0240 
     61 CB         30.2297   30.6557    7.8074 C.3       10 UNK        -0.1982 
     62 C          31.5391   29.0086    6.4032 C.2       10 UNK         0.4970 
     63 O          32.7234   29.1812    6.7005 O.2       10 UNK        -0.4916 
     64 N          31.0026   27.8237    6.1002 N.am      11 UNK        -0.4279 
     65 CA         31.7270   26.5555    5.9830 C.3       11 UNK         0.1003 
     66 C          30.6850   25.4144    5.8781 C.2       11 UNK         0.5709 
     67 N          30.2355   25.0721    4.6769 N.am      11 UNK        -0.7358 
     68 O          30.2681   24.8562    6.8896 O.2       11 UNK        -0.4999 
     69 C69        32.7905   26.5553    4.8419 C.3       12 UNK        -0.0954 
     70 S70        34.1375   25.3637    5.1455 S.3       12 UNK        -0.2268 
     71 C71        33.6260   23.9178    4.1518 C.3       12 UNK         0.0203 
     72 H72        30.5762   18.2209    2.9352 H         1 UNK         0.0888 
     73 H73        31.7800   19.2781    2.1917 H         1 UNK         0.0888 
     74 H74        30.6885   19.9133    3.4238 H         1 UNK         0.0888 
     75 H75        29.0265   21.1470    2.5578 H         1 UNK         0.3017 
     76 H76        27.4782   20.2805    0.3017 H         1 UNK         0.0873 
     77 H77        27.7841   22.3264   -1.0901 H         1 UNK         0.0745 
     78 H78        29.1914   21.3236   -1.0536 H         1 UNK         0.0745 
     79 H79        31.3290   21.7469    0.2033 H         1 UNK         0.0705 
     80 H80        31.4989   22.7427   -1.2219 H         1 UNK         0.0705 
     81 H81        31.9314   22.6495    2.4690 H         1 UNK         0.1334 
     82 H82        34.8775   25.7681    2.5056 H         1 UNK         0.1417 
     83 H83        32.8237   24.8054   -1.1277 H         1 UNK         0.1562 
     84 H84        35.2678   26.0722   -0.9144 H         1 UNK         0.0748 
     85 H85        35.4242   26.9739    0.5720 H         1 UNK         0.0748 
     86 H86        32.9980   29.4247    0.9314 H         1 UNK         0.0940 
     87 H87        33.0027   27.8139    1.5748 H         1 UNK         0.0940 
     88 H88        30.9488   27.2785    0.1319 H         1 UNK         0.0703 
     89 H89        30.8696   29.0973    2.4436 H         1 UNK         0.3081 
     90 H90        29.4150   28.5532    4.0609 H         1 UNK         0.0719 
     91 H91        27.0762   29.8010    2.5041 H         1 UNK         0.0809 
     92 H92        27.5155   30.1808    4.1683 H         1 UNK         0.0809 
     93 H93        28.6063   30.6005    2.8610 H         1 UNK         0.0809 
     94 H94        27.1391   26.9943    3.0747 H         1 UNK         0.2990 
     95 H95        26.9368   25.2501    5.9805 H         1 UNK         0.0690 
     96 H96        25.6354   27.0336    7.1357 H         1 UNK         0.0788 
     97 H97        24.5621   25.8018    6.4961 H         1 UNK         0.0788 
     98 H98        24.7231   27.3517    5.6673 H         1 UNK         0.0788 
     99 H99        24.9508   25.6444    3.9087 H         1 UNK         0.2993 
    100 H100       24.9189   23.4685    2.4449 H         1 UNK         0.0949 
    101 H101       24.9105   24.8688    0.3424 H         1 UNK         0.0767 
    102 H102       24.6811   25.8589    1.7670 H         1 UNK         0.0767 
    103 H103       26.2511   25.8201    0.9724 H         1 UNK         0.0767 
    104 H104       27.2897   23.5940    0.6891 H         1 UNK         0.3013 
    105 H105       29.1869   28.0175   -1.0741 H         1 UNK         0.3121 
    106 H106       27.9935   29.1788   -2.5538 H         1 UNK         0.0774 
    107 H107       29.2430   30.3626   -4.3313 H         1 UNK         0.0815 
    108 H108       30.6644   30.4833   -3.3044 H         1 UNK         0.0815 
    109 H109       30.1107   28.9087   -3.8720 H         1 UNK         0.0815 
    110 H110       28.0935   30.3110    0.0638 H         1 UNK         0.2987 
    111 H111       27.4029   31.9970    1.3178 H         1 UNK         0.0949 
    112 H112       26.4970   33.4590   -1.2090 H         1 UNK         0.0806 
    113 H113       25.5502   32.2416   -0.3535 H         1 UNK         0.0806 
    114 H114       25.9565   33.7555    0.4335 H         1 UNK         0.0806 
    115 H115       30.1981   32.1391   -0.2075 H         1 UNK         0.3010 
    116 H116       30.8523   34.9766    0.0685 H         1 UNK         0.0829 
    117 H117       31.8821   33.5466   -1.7125 H         1 UNK         0.0813 
    118 H118       33.0917   34.2647   -0.6593 H         1 UNK         0.0813 
    119 H119       32.6698   32.5702   -0.4737 H         1 UNK         0.0813 
    120 H120       31.2973   31.9855    1.9788 H         1 UNK         0.3038 
    121 H121       31.8197   33.4735    4.3939 H         1 UNK         0.0769 
    122 H122       34.0069   32.2987    4.8652 H         1 UNK         0.0811 
    123 H123       34.1601   33.3732    3.4852 H         1 UNK         0.0811 
    124 H124       34.0067   31.6346    3.2369 H         1 UNK         0.0811 
    125 H125       31.4549   32.1410    6.2138 H         1 UNK         0.3204 
    126 H126       29.6637   29.9416    5.8697 H         1 UNK         0.0748 
    127 H127       29.7594   29.8389    8.3569 H         1 UNK         0.0771 
    128 H128       31.1121   30.9627    8.3706 H         1 UNK         0.0771 
    129 H129       29.5257   31.4881    7.8030 H         1 UNK         0.0771 
    130 H130       29.9939   27.7515    5.9772 H         1 UNK         0.2980 
    131 H131       32.2461   26.4191    6.9338 H         1 UNK         0.0545 
    132 H132       30.5968   25.5093    3.8464 H         1 UNK         0.3459 
    133 H133       29.4942   24.3881    4.5873 H         1 UNK         0.3459 
    134 H134       32.3433   26.4062    3.8594 H         1 UNK         0.0616 
    135 H135       33.2794   27.5266    4.7717 H         1 UNK         0.0616 
    136 H136       32.7115   23.5125    4.5869 H         1 UNK         0.0634 
    137 H137       34.3856   23.1428    4.2595 H         1 UNK         0.0634 
@<TRIPOS>BOND
     1    1    2 1    
     2    1   72 1    
     3    1   73 1    
     4    1   74 1    
     5    2    3 2    
     6    2    4 am   BACKBONE|DICT|INTERRES
     7    4    5 1    
     8    4   75 1    
     9    5    6 1    
    10    5   35 1    
    11    5   76 1    
    12    6    7 1    
    13    6   77 1    
    14    6   78 1    
    15    7    8 1    
    16    8    9 1    
    17    8   79 1    
    18    8   80 1    
    19    9   10 ar   
    20    9   14 ar   
    21   10   11 ar   
    22   10   81 1    
    23   11   12 ar   
    24   11   71 1    
    25   12   13 ar   
    26   12   82 1    
    27   13   14 ar   
    28   13   15 1    
    29   14   83 1    
    30   15   16 1    
    31   15   84 1    
    32   15   85 1    
    33   16   17 1    
    34   17   18 1    
    35   17   86 1    
    36   17   87 1    
    37   18   19 1    
    38   18   37 1    
    39   18   88 1    
    40   19   20 am   BACKBONE|DICT|INTERRES
    41   19   89 1    
    42   20   21 2    
    43   20   22 1    
    44   22   23 1    
    45   22   24 1    
    46   22   90 1    
    47   23   91 1    
    48   23   92 1    
    49   23   93 1    
    50   24   25 am   BACKBONE|DICT|INTERRES
    51   24   94 1    
    52   25   26 2    
    53   25   27 1    
    54   27   28 1    
    55   27   29 1    
    56   27   95 1    
    57   28   96 1    
    58   28   97 1    
    59   28   98 1    
    60   29   30 am   BACKBONE|DICT|INTERRES
    61   29   99 1    
    62   30   31 2    
    63   30   32 1    
    64   32   33 1    
    65   32   34 1    
    66   32  100 1    
    67   33  101 1    
    68   33  102 1    
    69   33  103 1    
    70   34   35 am   BACKBONE|DICT|INTERRES
    71   34  104 1    
    72   35   36 2    
    73   37   38 2    
    74   37   39 am   BACKBONE|DICT|INTERRES
    75   39   40 1    
    76   39  105 1    
    77   40   41 1    
    78   40   42 1    
    79   40  106 1    
    80   41  107 1    
    81   41  108 1    
    82   41  109 1    
    83   42   43 2    
    84   42   44 am   BACKBONE|DICT|INTERRES
    85   44   45 1    
    86   44  110 1    
    87   45   46 1    
    88   45   47 1    
    89   45  111 1    
    90   46  112 1    
    91   46  113 1    
    92   46  114 1    
    93   47   48 2    
    94   47   49 am   BACKBONE|DICT|INTERRES
    95   49   50 1    
    96   49  115 1    
    97   50   51 1    
    98   50   52 1    
    99   50  116 1    
   100   51  117 1    
   101   51  118 1    
   102   51  119 1    
   103   52   53 2    
   104   52   54 am   BACKBONE|DICT|INTERRES
   105   54   55 1    
   106   54  120 1    
   107   55   56 1    
   108   55   57 1    
   109   55  121 1    
   110   56  122 1    
   111   56  123 1    
   112   56  124 1    
   113   57   58 2    
   114   57   59 am   BACKBONE|DICT|INTERRES
   115   59   60 1    
   116   59  125 1    
   117   60   61 1    
   118   60   62 1    
   119   60  126 1    
   120   61  127 1    
   121   61  128 1    
   122   61  129 1    
   123   62   63 2    
   124   62   64 am   BACKBONE|DICT|INTERRES
   125   64   65 1    
   126   64  130 1    
   127   65   66 1    
   128   65   69 1    
   129   65  131 1    
   130   66   67 am   BACKBONE|DICT|INTERRES
   131   66   68 2    
   132   67  132 1    
   133   67  133 1    
   134   69   70 1    
   135   69  134 1    
   136   69  135 1    
   137   70   71 1    
   138   71  136 1    
   139   71  137 1    
@<TRIPOS>SUBSTRUCTURE
     1 UNK         1 GROUP             0       ****    0 ROOT    
