@<TRIPOS>MOLECULE
3R136
137   139    1
SMALL
USER_CHARGES


@<TRIPOS>ATOM
      1 CA         27.2835   22.1002   -2.8243 C.3       0 UNK        -0.1979 
      2 C          27.8416   21.9143   -1.4215 C.2       0 UNK         0.4864 
      3 O          27.4054   21.0087   -0.7085 O.2       0 UNK        -0.5359 
      4 N          28.7947   22.7703   -1.0248 N.am      1 UNK        -0.4318 
      5 CA         29.4762   22.8205    0.2779 C.3       1 UNK         0.0824 
      6 C6         30.2844   21.5414    0.6339 C.3       12 UNK        -0.0944 
      7 S7         31.6319   21.2411   -0.5624 S.3       12 UNK        -0.2672 
      8 C8         33.0933   21.8650    0.3350 C.3       12 UNK         0.0333 
      9 C9         32.9180   23.3124    0.7731 C.ar      12 UNK        -0.0807 
     10 C10        32.7250   23.6184    2.1247 C.ar      12 UNK        -0.0894 
     11 C11        32.5010   24.9365    2.5316 C.ar      12 UNK        -0.0804 
     12 C12        32.4695   25.9486    1.5676 C.ar      12 UNK        -0.0824 
     13 C13        32.6734   25.6609    0.2152 C.ar      12 UNK        -0.0762 
     14 C14        32.9115   24.3403   -0.1755 C.ar      12 UNK        -0.0782 
     15 C15        32.6464   26.7812   -0.8164 C.3       12 UNK         0.0230 
     16 S16        31.2291   26.6809   -1.9617 S.3       12 UNK        -0.2608 
     17 C17        29.7732   26.7070   -0.8629 C.3       12 UNK        -0.0989 
     18 CA         29.3727   28.1311   -0.3811 C.3       5 UNK         0.0716 
     19 N          27.9226   28.3402   -0.4538 N.am      5 UNK        -0.4135 
     20 C          27.2523   29.4260   -0.0387 C.2       4 UNK         0.5031 
     21 O          27.7950   30.4649    0.3385 O.2       4 UNK        -0.5229 
     22 CA         25.7152   29.3179    0.0310 C.3       4 UNK         0.0329 
     23 CB         25.0758   30.0410   -1.1647 C.3       4 UNK        -0.2001 
     24 N          25.1875   27.9457    0.1078 N.am      4 UNK        -0.4303 
     25 C          25.5135   27.0265    1.0296 C.2       3 UNK         0.5044 
     26 O          26.3291   27.2321    1.9327 O.2       3 UNK        -0.5152 
     27 CA         24.8740   25.6351    0.8900 C.3       3 UNK         0.0319 
     28 CB         24.7342   25.1805   -0.5809 C.3       3 UNK        -0.2001 
     29 N          25.7037   24.6865    1.6251 N.am      3 UNK        -0.4354 
     30 C          25.3589   23.4678    2.0472 C.2       2 UNK         0.4964 
     31 O          24.2380   22.9792    1.8932 O.2       2 UNK        -0.5047 
     32 CA         26.4838   22.6528    2.7141 C.3       2 UNK         0.0288 
     33 CB         25.9910   21.3103    3.2859 C.3       2 UNK        -0.2113 
     34 N          27.5593   22.3916    1.7552 N.am      2 UNK        -0.4145 
     35 C          28.5250   23.2524    1.4101 C.2       1 UNK         0.5006 
     36 O          28.6482   24.3708    1.9125 O.2       1 UNK        -0.5103 
     37 C          29.9237   28.3928    1.0364 C.2       5 UNK         0.5055 
     38 O          30.9376   29.0764    1.1749 O.2       5 UNK        -0.5220 
     39 N          29.2309   27.8720    2.0619 N.am      6 UNK        -0.4450 
     40 CA         29.6065   28.0118    3.4689 C.3       6 UNK         0.0367 
     41 CB         28.7171   27.1104    4.3393 C.3       6 UNK        -0.1929 
     42 C          29.5518   29.4617    3.9630 C.2       6 UNK         0.5070 
     43 O          30.4211   29.8639    4.7346 O.2       6 UNK        -0.5237 
     44 N          28.5576   30.2235    3.4883 N.am      7 UNK        -0.4739 
     45 CA         28.4177   31.6535    3.7616 C.3       7 UNK         0.0276 
     46 CB         26.9973   32.1156    3.3981 C.3       7 UNK        -0.1927 
     47 C          29.4756   32.4843    3.0189 C.2       7 UNK         0.5013 
     48 O          30.0469   33.3979    3.6135 O.2       7 UNK        -0.5193 
     49 N          29.7318   32.1385    1.7485 N.am      8 UNK        -0.4253 
     50 CA         30.7290   32.7820    0.8900 C.3       8 UNK         0.0242 
     51 CB         30.5733   32.2738   -0.5528 C.3       8 UNK        -0.2000 
     52 C          32.1707   32.5840    1.3877 C.2       8 UNK         0.4948 
     53 O          32.9284   33.5535    1.4431 O.2       8 UNK        -0.5275 
     54 N          32.5207   31.3421    1.7496 N.am      9 UNK        -0.4246 
     55 CA         33.8370   30.9773    2.2817 C.3       9 UNK         0.0261 
     56 CB         34.0664   29.4748    2.0622 C.3       9 UNK        -0.1959 
     57 C          34.0180   31.3251    3.7698 C.2       9 UNK         0.5033 
     58 O          35.1596   31.3599    4.2314 O.2       9 UNK        -0.5390 
     59 N          32.9073   31.5521    4.4880 N.am      10 UNK        -0.4215 
     60 CA         32.8068   31.7697    5.9355 C.3       10 UNK         0.0240 
     61 CB         33.4961   33.0863    6.3547 C.3       10 UNK        -0.1982 
     62 C          33.2891   30.5403    6.7303 C.2       10 UNK         0.4970 
     63 O          34.1448   30.6645    7.6094 O.2       10 UNK        -0.4916 
     64 N          32.7362   29.3704    6.3849 N.am      11 UNK        -0.4279 
     65 CA         32.9975   28.0859    7.0520 C.3       11 UNK         0.1003 
     66 C          32.4779   28.0656    8.5163 C.2       11 UNK         0.5709 
     67 N          33.1696   27.3713    9.4098 N.am      11 UNK        -0.7358 
     68 O          31.4364   28.6349    8.8393 O.2       11 UNK        -0.4999 
     69 C69        32.4116   26.8916    6.2543 C.3       12 UNK        -0.0954 
     70 S70        33.1895   26.6742    4.6216 S.3       12 UNK        -0.2268 
     71 C71        32.2359   25.2476    4.0017 C.3       12 UNK         0.0203 
     72 H72        26.2146   22.3070   -2.7771 H         1 UNK         0.0888 
     73 H73        27.7656   22.9236   -3.3510 H         1 UNK         0.0888 
     74 H74        27.4301   21.1923   -3.4088 H         1 UNK         0.0888 
     75 H75        29.0982   23.4788   -1.6776 H         1 UNK         0.3017 
     76 H76        30.1947   23.6345    0.1872 H         1 UNK         0.0873 
     77 H77        30.7088   21.6153    1.6365 H         1 UNK         0.0745 
     78 H78        29.6414   20.6605    0.6516 H         1 UNK         0.0745 
     79 H79        33.9683   21.7853   -0.3116 H         1 UNK         0.0705 
     80 H80        33.2868   21.2193    1.1931 H         1 UNK         0.0705 
     81 H81        32.7255   22.8243    2.8590 H         1 UNK         0.1334 
     82 H82        32.2853   26.9659    1.8758 H         1 UNK         0.1417 
     83 H83        33.0577   24.1079   -1.2219 H         1 UNK         0.1562 
     84 H84        33.5672   26.7445   -1.4001 H         1 UNK         0.0748 
     85 H85        32.6409   27.7576   -0.3328 H         1 UNK         0.0748 
     86 H86        29.9186   26.0094   -0.0358 H         1 UNK         0.0940 
     87 H87        28.9651   26.2685   -1.4502 H         1 UNK         0.0940 
     88 H88        29.8150   28.8759   -1.0457 H         1 UNK         0.0703 
     89 H89        27.3731   27.5519   -0.7582 H         1 UNK         0.3081 
     90 H90        25.4064   29.8310    0.9441 H         1 UNK         0.0719 
     91 H91        25.3176   29.5521   -2.1093 H         1 UNK         0.0809 
     92 H92        23.9902   30.0792   -1.0727 H         1 UNK         0.0809 
     93 H93        25.4281   31.0716   -1.2319 H         1 UNK         0.0809 
     94 H94        24.5143   27.6886   -0.5999 H         1 UNK         0.2990 
     95 H95        23.8875   25.6769    1.3556 H         1 UNK         0.0690 
     96 H96        25.6939   25.1913   -1.0994 H         1 UNK         0.0788 
     97 H97        24.0464   25.8178   -1.1371 H         1 UNK         0.0788 
     98 H98        24.3378   24.1672   -0.6483 H         1 UNK         0.0788 
     99 H99        26.6385   25.0224    1.8397 H         1 UNK         0.2993 
    100 H100       26.8764   23.2480    3.5419 H         1 UNK         0.0949 
    101 H101       25.5975   20.6584    2.5047 H         1 UNK         0.0767 
    102 H102       26.7959   20.7773    3.7924 H         1 UNK         0.0767 
    103 H103       25.1955   21.4649    4.0161 H         1 UNK         0.0767 
    104 H104       27.4583   21.5667    1.1698 H         1 UNK         0.3013 
    105 H105       28.3606   27.3830    1.8779 H         1 UNK         0.3121 
    106 H106       30.6393   27.6797    3.5666 H         1 UNK         0.0774 
    107 H107       29.0082   27.1687    5.3885 H         1 UNK         0.0815 
    108 H108       27.6673   27.3994    4.2785 H         1 UNK         0.0815 
    109 H109       28.7924   26.0658    4.0383 H         1 UNK         0.0815 
    110 H110       27.9087   29.8133    2.8317 H         1 UNK         0.2987 
    111 H111       28.5630   31.8123    4.8328 H         1 UNK         0.0949 
    112 H112       26.7829   31.9819    2.3373 H         1 UNK         0.0806 
    113 H113       26.2448   31.5663    3.9640 H         1 UNK         0.0806 
    114 H114       26.8638   33.1741    3.6253 H         1 UNK         0.0806 
    115 H115       29.1738   31.4003    1.3267 H         1 UNK         0.3010 
    116 H116       30.5230   33.8544    0.8947 H         1 UNK         0.0829 
    117 H117       31.2840   32.7650   -1.2187 H         1 UNK         0.0813 
    118 H118       30.7466   31.1998   -0.6248 H         1 UNK         0.0813 
    119 H119       29.5737   32.4759   -0.9380 H         1 UNK         0.0813 
    120 H120       31.8534   30.5815    1.6189 H         1 UNK         0.3038 
    121 H121       34.6019   31.5213    1.7232 H         1 UNK         0.0769 
    122 H122       35.0502   29.1686    2.4205 H         1 UNK         0.0811 
    123 H123       34.0095   29.2140    1.0061 H         1 UNK         0.0811 
    124 H124       33.3261   28.8828    2.5990 H         1 UNK         0.0811 
    125 H125       32.0204   31.4537    4.0114 H         1 UNK         0.3204 
    126 H126       31.7430   31.8770    6.1535 H         1 UNK         0.0748 
    127 H127       33.3192   33.2981    7.4098 H         1 UNK         0.0771 
    128 H128       34.5760   33.0478    6.2090 H         1 UNK         0.0771 
    129 H129       33.1106   33.9319    5.7850 H         1 UNK         0.0771 
    130 H130       31.9898   29.3805    5.6955 H         1 UNK         0.2980 
    131 H131       34.0820   27.9640    7.0887 H         1 UNK         0.0545 
    132 H132       32.8402   27.3334   10.3618 H         1 UNK         0.3459 
    133 H133       34.0179   26.8902    9.1541 H         1 UNK         0.3459 
    134 H134       32.5480   25.9591    6.8055 H         1 UNK         0.0616 
    135 H135       31.3361   27.0163    6.1198 H         1 UNK         0.0616 
    136 H136       32.4717   24.3836    4.6247 H         1 UNK         0.0634 
    137 H137       31.1699   25.4345    4.1269 H         1 UNK         0.0634 
@<TRIPOS>BOND
     1    1    2 1    
     2    1   72 1    
     3    1   73 1    
     4    1   74 1    
     5    2    3 2    
     6    2    4 am   BACKBONE|DICT|INTERRES
     7    4    5 1    
     8    4   75 1    
     9    5    6 1    
    10    5   35 1    
    11    5   76 1    
    12    6    7 1    
    13    6   77 1    
    14    6   78 1    
    15    7    8 1    
    16    8    9 1    
    17    8   79 1    
    18    8   80 1    
    19    9   10 ar   
    20    9   14 ar   
    21   10   11 ar   
    22   10   81 1    
    23   11   12 ar   
    24   11   71 1    
    25   12   13 ar   
    26   12   82 1    
    27   13   14 ar   
    28   13   15 1    
    29   14   83 1    
    30   15   16 1    
    31   15   84 1    
    32   15   85 1    
    33   16   17 1    
    34   17   18 1    
    35   17   86 1    
    36   17   87 1    
    37   18   19 1    
    38   18   37 1    
    39   18   88 1    
    40   19   20 am   BACKBONE|DICT|INTERRES
    41   19   89 1    
    42   20   21 2    
    43   20   22 1    
    44   22   23 1    
    45   22   24 1    
    46   22   90 1    
    47   23   91 1    
    48   23   92 1    
    49   23   93 1    
    50   24   25 am   BACKBONE|DICT|INTERRES
    51   24   94 1    
    52   25   26 2    
    53   25   27 1    
    54   27   28 1    
    55   27   29 1    
    56   27   95 1    
    57   28   96 1    
    58   28   97 1    
    59   28   98 1    
    60   29   30 am   BACKBONE|DICT|INTERRES
    61   29   99 1    
    62   30   31 2    
    63   30   32 1    
    64   32   33 1    
    65   32   34 1    
    66   32  100 1    
    67   33  101 1    
    68   33  102 1    
    69   33  103 1    
    70   34   35 am   BACKBONE|DICT|INTERRES
    71   34  104 1    
    72   35   36 2    
    73   37   38 2    
    74   37   39 am   BACKBONE|DICT|INTERRES
    75   39   40 1    
    76   39  105 1    
    77   40   41 1    
    78   40   42 1    
    79   40  106 1    
    80   41  107 1    
    81   41  108 1    
    82   41  109 1    
    83   42   43 2    
    84   42   44 am   BACKBONE|DICT|INTERRES
    85   44   45 1    
    86   44  110 1    
    87   45   46 1    
    88   45   47 1    
    89   45  111 1    
    90   46  112 1    
    91   46  113 1    
    92   46  114 1    
    93   47   48 2    
    94   47   49 am   BACKBONE|DICT|INTERRES
    95   49   50 1    
    96   49  115 1    
    97   50   51 1    
    98   50   52 1    
    99   50  116 1    
   100   51  117 1    
   101   51  118 1    
   102   51  119 1    
   103   52   53 2    
   104   52   54 am   BACKBONE|DICT|INTERRES
   105   54   55 1    
   106   54  120 1    
   107   55   56 1    
   108   55   57 1    
   109   55  121 1    
   110   56  122 1    
   111   56  123 1    
   112   56  124 1    
   113   57   58 2    
   114   57   59 am   BACKBONE|DICT|INTERRES
   115   59   60 1    
   116   59  125 1    
   117   60   61 1    
   118   60   62 1    
   119   60  126 1    
   120   61  127 1    
   121   61  128 1    
   122   61  129 1    
   123   62   63 2    
   124   62   64 am   BACKBONE|DICT|INTERRES
   125   64   65 1    
   126   64  130 1    
   127   65   66 1    
   128   65   69 1    
   129   65  131 1    
   130   66   67 am   BACKBONE|DICT|INTERRES
   131   66   68 2    
   132   67  132 1    
   133   67  133 1    
   134   69   70 1    
   135   69  134 1    
   136   69  135 1    
   137   70   71 1    
   138   71  136 1    
   139   71  137 1    
@<TRIPOS>SUBSTRUCTURE
     1 UNK         1 GROUP             0       ****    0 ROOT    
