@<TRIPOS>MOLECULE
3R136
137   139    1
SMALL
USER_CHARGES


@<TRIPOS>ATOM
      1 CA         31.6676   21.9020   -3.7325 C.3       0 UNK        -0.1979 
      2 C          30.7409   21.5719   -2.5719 C.2       0 UNK         0.4864 
      3 O          30.0806   20.5335   -2.5981 O.2       0 UNK        -0.5359 
      4 N          30.6730   22.4615   -1.5701 N.am      1 UNK        -0.4318 
      5 CA         29.9132   22.3467   -0.3109 C.3       1 UNK         0.0824 
      6 C6         30.3126   21.1124    0.5485 C.3       12 UNK        -0.0944 
      7 S7         32.0812   21.1021    1.0043 S.3       12 UNK        -0.2672 
      8 C8         32.0221   21.5879    2.7595 C.3       12 UNK         0.0333 
      9 C9         31.7661   23.0788    2.9237 C.ar      12 UNK        -0.0807 
     10 C10        32.8384   23.9743    2.9581 C.ar      12 UNK        -0.0894 
     11 C11        32.6157   25.3461    3.1188 C.ar      12 UNK        -0.0804 
     12 C12        31.3043   25.8237    3.2115 C.ar      12 UNK        -0.0824 
     13 C13        30.2244   24.9379    3.1641 C.ar      12 UNK        -0.0762 
     14 C14        30.4615   23.5659    3.0416 C.ar      12 UNK        -0.0782 
     15 C15        28.7977   25.4578    3.1930 C.3       12 UNK         0.0230 
     16 S16        28.1874   25.7170    4.8925 S.3       12 UNK        -0.2608 
     17 C17        28.4855   27.4849    5.2830 C.3       12 UNK        -0.0989 
     18 CA         28.2786   28.5093    4.1344 C.3       5 UNK         0.0716 
     19 N          27.0607   28.2534    3.3597 N.am      5 UNK        -0.4135 
     20 C          26.7896   28.8031    2.1702 C.2       4 UNK         0.5031 
     21 O          27.5308   29.6067    1.5977 O.2       4 UNK        -0.5229 
     22 CA         25.4585   28.3964    1.5159 C.3       4 UNK         0.0329 
     23 CB         24.4739   29.5769    1.5104 C.3       4 UNK        -0.2001 
     24 N          25.6416   27.9115    0.1454 N.am      4 UNK        -0.4303 
     25 C          26.3132   26.8013   -0.1878 C.2       3 UNK         0.5044 
     26 O          26.8572   26.0573    0.6305 O.2       3 UNK        -0.5152 
     27 CA         26.3977   26.4811   -1.6912 C.3       3 UNK         0.0319 
     28 CB         27.4565   27.3562   -2.3798 C.3       3 UNK        -0.2001 
     29 N          26.7310   25.0747   -1.9239 N.am      3 UNK        -0.4354 
     30 C          25.8716   24.0539   -1.8012 C.2       2 UNK         0.4964 
     31 O          24.6733   24.1930   -1.5511 O.2       2 UNK        -0.5047 
     32 CA         26.4340   22.6369   -2.0126 C.3       2 UNK         0.0288 
     33 CB         26.1989   22.1772   -3.4611 C.3       2 UNK        -0.2113 
     34 N          27.8628   22.5272   -1.7033 N.am      2 UNK        -0.4145 
     35 C          28.3752   22.4469   -0.4665 C.2       1 UNK         0.5006 
     36 O          27.6768   22.4635    0.5487 O.2       1 UNK        -0.5103 
     37 C          28.2704   29.9550    4.6727 C.2       5 UNK         0.5055 
     38 O          27.1966   30.5158    4.9056 O.2       5 UNK        -0.5220 
     39 N          29.4631   30.5442    4.8194 N.am      6 UNK        -0.4450 
     40 CA         29.7572   31.9481    5.1474 C.3       6 UNK         0.0367 
     41 CB         29.0982   32.4043    6.4637 C.3       6 UNK        -0.1929 
     42 C          29.4684   32.9221    3.9921 C.2       6 UNK         0.5070 
     43 O          30.2474   33.8541    3.7942 O.2       6 UNK        -0.5237 
     44 N          28.3942   32.6816    3.2292 N.am      7 UNK        -0.4739 
     45 CA         28.0727   33.3976    1.9951 C.3       7 UNK         0.0276 
     46 CB         26.6127   33.1260    1.5983 C.3       7 UNK        -0.1927 
     47 C          29.0423   33.0266    0.8612 C.2       7 UNK         0.5013 
     48 O          29.6354   33.9229    0.2597 O.2       7 UNK        -0.5193 
     49 N          29.2002   31.7196    0.6031 N.am      8 UNK        -0.4253 
     50 CA         30.1451   31.1895   -0.3822 C.3       8 UNK         0.0242 
     51 CB         29.7165   29.7759   -0.8052 C.3       8 UNK        -0.2000 
     52 C          31.5859   31.1894    0.1491 C.2       8 UNK         0.4948 
     53 O          32.4839   31.6848   -0.5330 O.2       8 UNK        -0.5275 
     54 N          31.7761   30.6421    1.3553 N.am      9 UNK        -0.4246 
     55 CA         33.0523   30.5464    2.0574 C.3       9 UNK         0.0261 
     56 CB         33.9405   29.4622    1.4203 C.3       9 UNK        -0.1959 
     57 C          32.7682   30.2358    3.5290 C.2       9 UNK         0.5033 
     58 O          31.8217   29.4978    3.8230 O.2       9 UNK        -0.5390 
     59 N          33.5770   30.8042    4.4283 N.am      10 UNK        -0.4215 
     60 CA         33.4141   30.7085    5.8788 C.3       10 UNK         0.0240 
     61 CB         33.7553   32.0727    6.5088 C.3       10 UNK        -0.1982 
     62 C          34.2594   29.5635    6.4561 C.2       10 UNK         0.4970 
     63 O          35.2683   29.8145    7.1180 O.2       10 UNK        -0.4916 
     64 N          33.8243   28.3247    6.2002 N.am      11 UNK        -0.4279 
     65 CA         34.3873   27.1103    6.8174 C.3       11 UNK         0.1003 
     66 C          33.9406   26.8811    8.2925 C.2       11 UNK         0.5709 
     67 N          32.9571   27.6040    8.8169 N.am      11 UNK        -0.7358 
     68 O          34.5087   26.0361    8.9803 O.2       11 UNK        -0.4999 
     69 C69        34.1184   25.8510    5.9557 C.3       12 UNK        -0.0954 
     70 S70        35.0576   25.8642    4.3924 S.3       12 UNK        -0.2268 
     71 C71        33.7844   26.3215    3.1736 C.3       12 UNK         0.0203 
     72 H72        31.1024   21.9522   -4.6629 H         1 UNK         0.0888 
     73 H73        32.1754   22.8561   -3.5920 H         1 UNK         0.0888 
     74 H74        32.4266   21.1271   -3.8362 H         1 UNK         0.0888 
     75 H75        31.2390   23.2964   -1.6362 H         1 UNK         0.3017 
     76 H76        30.1852   23.2371    0.2571 H         1 UNK         0.0873 
     77 H77        29.7180   21.0620    1.4617 H         1 UNK         0.0745 
     78 H78        30.0952   20.1864    0.0146 H         1 UNK         0.0745 
     79 H79        32.9738   21.3265    3.2248 H         1 UNK         0.0705 
     80 H80        31.2628   21.0058    3.2840 H         1 UNK         0.0705 
     81 H81        33.8501   23.6028    2.8676 H         1 UNK         0.1334 
     82 H82        31.1223   26.8851    3.3114 H         1 UNK         0.1417 
     83 H83        29.6256   22.8803    3.0105 H         1 UNK         0.1562 
     84 H84        28.1382   24.7355    2.7084 H         1 UNK         0.0748 
     85 H85        28.7270   26.3558    2.5837 H         1 UNK         0.0748 
     86 H86        29.5024   27.5702    5.6711 H         1 UNK         0.0940 
     87 H87        27.8303   27.7265    6.1229 H         1 UNK         0.0940 
     88 H88        29.1242   28.4267    3.4483 H         1 UNK         0.0703 
     89 H89        26.3948   27.6214    3.7783 H         1 UNK         0.3081 
     90 H90        25.0141   27.5858    2.0975 H         1 UNK         0.0719 
     91 H91        24.8191   30.3875    0.8682 H         1 UNK         0.0809 
     92 H92        23.4885   29.2694    1.1599 H         1 UNK         0.0809 
     93 H93        24.3471   29.9865    2.5137 H         1 UNK         0.0809 
     94 H94        25.2577   28.4865   -0.5900 H         1 UNK         0.2990 
     95 H95        25.4257   26.6874   -2.1450 H         1 UNK         0.0690 
     96 H96        27.5510   27.1090   -3.4374 H         1 UNK         0.0788 
     97 H97        28.4384   27.2412   -1.9185 H         1 UNK         0.0788 
     98 H98        27.1847   28.4104   -2.3233 H         1 UNK         0.0788 
     99 H99        27.7022   24.8626   -2.0930 H         1 UNK         0.2993 
    100 H100       25.8839   21.9658   -1.3488 H         1 UNK         0.0949 
    101 H101       26.7285   22.8071   -4.1771 H         1 UNK         0.0767 
    102 H102       26.5296   21.1487   -3.6090 H         1 UNK         0.0767 
    103 H103       25.1385   22.2149   -3.7153 H         1 UNK         0.0767 
    104 H104       28.4993   22.4581   -2.4840 H         1 UNK         0.3013 
    105 H105       30.2876   30.0081    4.5447 H         1 UNK         0.3121 
    106 H106       30.8342   31.9895    5.3037 H         1 UNK         0.0774 
    107 H107       29.4624   33.3906    6.7537 H         1 UNK         0.0815 
    108 H108       28.0140   32.4773    6.3791 H         1 UNK         0.0815 
    109 H109       29.3281   31.7206    7.2806 H         1 UNK         0.0815 
    110 H110       27.7909   31.9108    3.4945 H         1 UNK         0.2987 
    111 H111       28.1763   34.4686    2.1844 H         1 UNK         0.0949 
    112 H112       26.3526   33.6574    0.6819 H         1 UNK         0.0806 
    113 H113       26.4302   32.0664    1.4235 H         1 UNK         0.0806 
    114 H114       25.9231   33.4600    2.3736 H         1 UNK         0.0806 
    115 H115       28.6286   31.0396    1.1015 H         1 UNK         0.3010 
    116 H116       30.1147   31.8258   -1.2696 H         1 UNK         0.0829 
    117 H117       28.7065   29.7874   -1.2118 H         1 UNK         0.0813 
    118 H118       30.3768   29.3806   -1.5782 H         1 UNK         0.0813 
    119 H119       29.7303   29.0738    0.0293 H         1 UNK         0.0813 
    120 H120       30.9882   30.2632    1.8634 H         1 UNK         0.3038 
    121 H121       33.5582   31.5125    1.9972 H         1 UNK         0.0769 
    122 H122       34.8247   29.2621    2.0271 H         1 UNK         0.0811 
    123 H123       34.2904   29.7675    0.4342 H         1 UNK         0.0811 
    124 H124       33.3988   28.5242    1.2998 H         1 UNK         0.0811 
    125 H125       34.3630   31.3501    4.1031 H         1 UNK         0.3204 
    126 H126       32.3745   30.4873    6.1273 H         1 UNK         0.0748 
    127 H127       33.6357   32.0433    7.5927 H         1 UNK         0.0771 
    128 H128       34.7838   32.3713    6.3018 H         1 UNK         0.0771 
    129 H129       33.0985   32.8581    6.1338 H         1 UNK         0.0771 
    130 H130       33.0031   28.2025    5.6250 H         1 UNK         0.2980 
    131 H131       35.4706   27.2375    6.8683 H         1 UNK         0.0545 
    132 H132       32.4785   28.2994    8.2694 H         1 UNK         0.3459 
    133 H133       32.6882   27.4436    9.7749 H         1 UNK         0.3459 
    134 H134       33.0504   25.7359    5.7662 H         1 UNK         0.0616 
    135 H135       34.4251   24.9470    6.4853 H         1 UNK         0.0616 
    136 H136       34.2470   26.3727    2.1874 H         1 UNK         0.0634 
    137 H137       33.4360   27.3256    3.4105 H         1 UNK         0.0634 
@<TRIPOS>BOND
     1    1    2 1    
     2    1   72 1    
     3    1   73 1    
     4    1   74 1    
     5    2    3 2    
     6    2    4 am   BACKBONE|DICT|INTERRES
     7    4    5 1    
     8    4   75 1    
     9    5    6 1    
    10    5   35 1    
    11    5   76 1    
    12    6    7 1    
    13    6   77 1    
    14    6   78 1    
    15    7    8 1    
    16    8    9 1    
    17    8   79 1    
    18    8   80 1    
    19    9   10 ar   
    20    9   14 ar   
    21   10   11 ar   
    22   10   81 1    
    23   11   12 ar   
    24   11   71 1    
    25   12   13 ar   
    26   12   82 1    
    27   13   14 ar   
    28   13   15 1    
    29   14   83 1    
    30   15   16 1    
    31   15   84 1    
    32   15   85 1    
    33   16   17 1    
    34   17   18 1    
    35   17   86 1    
    36   17   87 1    
    37   18   19 1    
    38   18   37 1    
    39   18   88 1    
    40   19   20 am   BACKBONE|DICT|INTERRES
    41   19   89 1    
    42   20   21 2    
    43   20   22 1    
    44   22   23 1    
    45   22   24 1    
    46   22   90 1    
    47   23   91 1    
    48   23   92 1    
    49   23   93 1    
    50   24   25 am   BACKBONE|DICT|INTERRES
    51   24   94 1    
    52   25   26 2    
    53   25   27 1    
    54   27   28 1    
    55   27   29 1    
    56   27   95 1    
    57   28   96 1    
    58   28   97 1    
    59   28   98 1    
    60   29   30 am   BACKBONE|DICT|INTERRES
    61   29   99 1    
    62   30   31 2    
    63   30   32 1    
    64   32   33 1    
    65   32   34 1    
    66   32  100 1    
    67   33  101 1    
    68   33  102 1    
    69   33  103 1    
    70   34   35 am   BACKBONE|DICT|INTERRES
    71   34  104 1    
    72   35   36 2    
    73   37   38 2    
    74   37   39 am   BACKBONE|DICT|INTERRES
    75   39   40 1    
    76   39  105 1    
    77   40   41 1    
    78   40   42 1    
    79   40  106 1    
    80   41  107 1    
    81   41  108 1    
    82   41  109 1    
    83   42   43 2    
    84   42   44 am   BACKBONE|DICT|INTERRES
    85   44   45 1    
    86   44  110 1    
    87   45   46 1    
    88   45   47 1    
    89   45  111 1    
    90   46  112 1    
    91   46  113 1    
    92   46  114 1    
    93   47   48 2    
    94   47   49 am   BACKBONE|DICT|INTERRES
    95   49   50 1    
    96   49  115 1    
    97   50   51 1    
    98   50   52 1    
    99   50  116 1    
   100   51  117 1    
   101   51  118 1    
   102   51  119 1    
   103   52   53 2    
   104   52   54 am   BACKBONE|DICT|INTERRES
   105   54   55 1    
   106   54  120 1    
   107   55   56 1    
   108   55   57 1    
   109   55  121 1    
   110   56  122 1    
   111   56  123 1    
   112   56  124 1    
   113   57   58 2    
   114   57   59 am   BACKBONE|DICT|INTERRES
   115   59   60 1    
   116   59  125 1    
   117   60   61 1    
   118   60   62 1    
   119   60  126 1    
   120   61  127 1    
   121   61  128 1    
   122   61  129 1    
   123   62   63 2    
   124   62   64 am   BACKBONE|DICT|INTERRES
   125   64   65 1    
   126   64  130 1    
   127   65   66 1    
   128   65   69 1    
   129   65  131 1    
   130   66   67 am   BACKBONE|DICT|INTERRES
   131   66   68 2    
   132   67  132 1    
   133   67  133 1    
   134   69   70 1    
   135   69  134 1    
   136   69  135 1    
   137   70   71 1    
   138   71  136 1    
   139   71  137 1    
@<TRIPOS>SUBSTRUCTURE
     1 UNK         1 GROUP             0       ****    0 ROOT    
