@<TRIPOS>MOLECULE
3R136
137   139    1
SMALL
USER_CHARGES


@<TRIPOS>ATOM
      1 CA         30.5129   25.1381    4.5408 C.3       0 UNK        -0.1979 
      2 C          29.6700   24.6643    3.3677 C.2       0 UNK         0.4864 
      3 O          29.4448   25.4300    2.4336 O.2       0 UNK        -0.5359 
      4 N          29.1906   23.4132    3.4149 N.am      1 UNK        -0.4318 
      5 CA         28.4768   22.7233    2.3258 C.3       1 UNK         0.0824 
      6 C6         29.3995   22.4166    1.1124 C.3       12 UNK        -0.0944 
      7 S7         30.8100   21.3602    1.5857 S.3       12 UNK        -0.2672 
      8 C8         31.8997   21.5347    0.1401 C.3       12 UNK         0.0333 
      9 C9         32.7523   22.7949    0.2042 C.ar      12 UNK        -0.0807 
     10 C10        33.9064   22.8201    0.9951 C.ar      12 UNK        -0.0894 
     11 C11        34.7339   23.9477    1.0139 C.ar      12 UNK        -0.0804 
     12 C12        34.3995   25.0519    0.2242 C.ar      12 UNK        -0.0824 
     13 C13        33.2343   25.0523   -0.5474 C.ar      12 UNK        -0.0762 
     14 C14        32.4150   23.9188   -0.5567 C.ar      12 UNK        -0.0782 
     15 C15        32.8648   26.2807   -1.3692 C.3       12 UNK         0.0230 
     16 S16        32.6475   27.7594   -0.3261 S.3       12 UNK        -0.2608 
     17 C17        31.2441   27.2563    0.7238 C.3       12 UNK        -0.0989 
     18 CA         29.9971   28.1668    0.5340 C.3       5 UNK         0.0716 
     19 N          28.8730   27.4564   -0.0878 N.am      5 UNK        -0.4135 
     20 C          28.7999   27.2245   -1.4083 C.2       4 UNK         0.5031 
     21 O          29.6150   27.6548   -2.2254 O.2       4 UNK        -0.5229 
     22 CA         27.6436   26.3561   -1.9368 C.3       4 UNK         0.0329 
     23 CB         28.0967   24.8915   -2.0499 C.3       4 UNK        -0.2001 
     24 N          26.4274   26.4279   -1.1293 N.am      4 UNK        -0.4303 
     25 C          25.6632   27.5210   -0.9900 C.2       3 UNK         0.5044 
     26 O          25.8684   28.5748   -1.5931 O.2       3 UNK        -0.5152 
     27 CA         24.4745   27.4471   -0.0081 C.3       3 UNK         0.0319 
     28 CB         23.1433   27.4311   -0.7773 C.3       3 UNK        -0.2001 
     29 N          24.4914   26.3185    0.9325 N.am      3 UNK        -0.4354 
     30 C          25.4690   26.0405    1.8056 C.2       2 UNK         0.4964 
     31 O          26.5177   26.6835    1.8647 O.2       2 UNK        -0.5047 
     32 CA         25.2608   24.8477    2.7611 C.3       2 UNK         0.0288 
     33 CB         24.0537   23.9487    2.4045 C.3       2 UNK        -0.2113 
     34 N          26.4823   24.0460    2.8988 N.am      2 UNK        -0.4145 
     35 C          27.1566   23.4243    1.9171 C.2       1 UNK         0.5006 
     36 O          26.7728   23.3875    0.7452 O.2       1 UNK        -0.5103 
     37 C          29.6005   28.8819    1.8380 C.2       5 UNK         0.5055 
     38 O          30.0304   30.0185    2.0397 O.2       5 UNK        -0.5220 
     39 N          28.7801   28.2465    2.6909 N.am      6 UNK        -0.4450 
     40 CA         28.3504   28.7576    4.0035 C.3       6 UNK         0.0367 
     41 CB         27.4780   27.7189    4.7269 C.3       6 UNK        -0.1929 
     42 C          27.6235   30.1123    3.9575 C.2       6 UNK         0.5070 
     43 O          27.6668   30.8510    4.9410 O.2       6 UNK        -0.5237 
     44 N          27.0321   30.4506    2.8034 N.am      7 UNK        -0.4739 
     45 CA         26.4745   31.7701    2.4879 C.3       7 UNK         0.0276 
     46 CB         25.8186   31.7119    1.0987 C.3       7 UNK        -0.1927 
     47 C          27.5024   32.9215    2.5545 C.2       7 UNK         0.5013 
     48 O          27.1016   34.0659    2.7687 O.2       7 UNK        -0.5193 
     49 N          28.7947   32.6018    2.3975 N.am      8 UNK        -0.4253 
     50 CA         29.9317   33.5085    2.5660 C.3       8 UNK         0.0242 
     51 CB         30.6813   33.6088    1.2245 C.3       8 UNK        -0.2000 
     52 C          30.8594   33.0276    3.7008 C.2       8 UNK         0.4948 
     53 O          32.0345   33.4005    3.7170 O.2       8 UNK        -0.5275 
     54 N          30.3331   32.2000    4.6189 N.am      9 UNK        -0.4246 
     55 CA         31.0155   31.4783    5.6999 C.3       9 UNK         0.0261 
     56 CB         31.6642   32.4324    6.7242 C.3       9 UNK        -0.1959 
     57 C          31.9989   30.4201    5.1721 C.2       9 UNK         0.5033 
     58 O          31.7213   29.2274    5.3049 O.2       9 UNK        -0.5390 
     59 N          33.1092   30.8762    4.5745 N.am      10 UNK        -0.4215 
     60 CA         34.1659   30.0943    3.9232 C.3       10 UNK         0.0240 
     61 CB         33.6903   29.6701    2.5181 C.3       10 UNK        -0.1982 
     62 C          34.6743   28.9283    4.7981 C.2       10 UNK         0.4970 
     63 O          35.2539   29.1844    5.8550 O.2       10 UNK        -0.4916 
     64 N          34.4457   27.6867    4.3527 N.am      11 UNK        -0.4279 
     65 CA         34.7788   26.4474    5.0719 C.3       11 UNK         0.1003 
     66 C          33.8510   26.1232    6.2810 C.2       11 UNK         0.5709 
     67 N          32.7749   26.8594    6.5316 N.am      11 UNK        -0.7358 
     68 O          34.1228   25.1804    7.0208 O.2       11 UNK        -0.4999 
     69 C69        34.8804   25.2404    4.1001 C.3       12 UNK        -0.0954 
     70 S70        36.2006   25.4616    2.8637 S.3       12 UNK        -0.2268 
     71 C71        36.0060   23.9533    1.8562 C.3       12 UNK         0.0203 
     72 H72        31.5688   24.9944    4.3175 H         1 UNK         0.0888 
     73 H73        30.3498   26.1999    4.7258 H         1 UNK         0.0888 
     74 H74        30.2766   24.5942    5.4548 H         1 UNK         0.0888 
     75 H75        29.4045   22.8374    4.2172 H         1 UNK         0.3017 
     76 H76        28.1607   21.7645    2.7395 H         1 UNK         0.0873 
     77 H77        28.8516   21.8963    0.3247 H         1 UNK         0.0745 
     78 H78        29.7715   23.3431    0.6724 H         1 UNK         0.0745 
     79 H79        32.5544   20.6632    0.0926 H         1 UNK         0.0705 
     80 H80        31.3038   21.5126   -0.7738 H         1 UNK         0.0705 
     81 H81        34.1654   21.9515    1.5854 H         1 UNK         0.1334 
     82 H82        35.0378   25.9250    0.2236 H         1 UNK         0.1417 
     83 H83        31.5195   23.9069   -1.1631 H         1 UNK         0.1562 
     84 H84        31.9506   26.1119   -1.9405 H         1 UNK         0.0748 
     85 H85        33.6535   26.4735   -2.0975 H         1 UNK         0.0748 
     86 H86        31.5934   27.2344    1.7576 H         1 UNK         0.0940 
     87 H87        30.9891   26.2181    0.5097 H         1 UNK         0.0940 
     88 H88        30.2580   28.9861   -0.1402 H         1 UNK         0.0703 
     89 H89        28.1582   27.0834    0.5278 H         1 UNK         0.3081 
     90 H90        27.3953   26.7132   -2.9386 H         1 UNK         0.0719 
     91 H91        28.3928   24.4878   -1.0815 H         1 UNK         0.0809 
     92 H92        27.3065   24.2572   -2.4517 H         1 UNK         0.0809 
     93 H93        28.9564   24.8002   -2.7152 H         1 UNK         0.0809 
     94 H94        26.2001   25.6117   -0.5771 H         1 UNK         0.2990 
     95 H95        24.5096   28.3598    0.5901 H         1 UNK         0.0690 
     96 H96        22.2911   27.4968   -0.1005 H         1 UNK         0.0788 
     97 H97        23.0331   26.5232   -1.3718 H         1 UNK         0.0788 
     98 H98        23.0747   28.2785   -1.4612 H         1 UNK         0.0788 
     99 H99        23.6764   25.7223    0.9321 H         1 UNK         0.2993 
    100 H100       25.0705   25.2848    3.7424 H         1 UNK         0.0949 
    101 H101       23.9689   23.1162    3.1033 H         1 UNK         0.0767 
    102 H102       23.1146   24.5007    2.4597 H         1 UNK         0.0767 
    103 H103       24.1365   23.5268    1.4020 H         1 UNK         0.0767 
    104 H104       26.9057   24.0494    3.8154 H         1 UNK         0.3013 
    105 H105       28.4955   27.2946    2.4735 H         1 UNK         0.3121 
    106 H106       29.2562   28.8988    4.5930 H         1 UNK         0.0774 
    107 H107       27.3260   28.0047    5.7685 H         1 UNK         0.0815 
    108 H108       26.4909   27.6340    4.2734 H         1 UNK         0.0815 
    109 H109       27.9349   26.7310    4.7264 H         1 UNK         0.0815 
    110 H110       27.0457   29.7694    2.0578 H         1 UNK         0.2987 
    111 H111       25.7009   31.9866    3.2277 H         1 UNK         0.0949 
    112 H112       26.5418   31.4643    0.3203 H         1 UNK         0.0806 
    113 H113       25.0220   30.9684    1.0652 H         1 UNK         0.0806 
    114 H114       25.3732   32.6726    0.8362 H         1 UNK         0.0806 
    115 H115       29.0456   31.6280    2.2337 H         1 UNK         0.3010 
    116 H116       29.5880   34.5065    2.8450 H         1 UNK         0.0829 
    117 H117       30.0206   33.9462    0.4259 H         1 UNK         0.0813 
    118 H118       31.5047   34.3216    1.2840 H         1 UNK         0.0813 
    119 H119       31.1010   32.6459    0.9290 H         1 UNK         0.0813 
    120 H120       29.3534   31.9557    4.5183 H         1 UNK         0.3038 
    121 H121       30.2304   30.9332    6.2267 H         1 UNK         0.0769 
    122 H122       32.4511   33.0473    6.2878 H         1 UNK         0.0811 
    123 H123       32.1123   31.8705    7.5448 H         1 UNK         0.0811 
    124 H124       30.9232   33.1029    7.1592 H         1 UNK         0.0811 
    125 H125       33.1737   31.8840    4.4686 H         1 UNK         0.3204 
    126 H126       35.0151   30.7667    3.7942 H         1 UNK         0.0748 
    127 H127       34.4559   29.1039    1.9856 H         1 UNK         0.0771 
    128 H128       32.7873   29.0626    2.5656 H         1 UNK         0.0771 
    129 H129       33.4566   30.5416    1.9061 H         1 UNK         0.0771 
    130 H130       33.9541   27.5716    3.4801 H         1 UNK         0.2980 
    131 H131       35.7686   26.5901    5.5097 H         1 UNK         0.0545 
    132 H132       32.5292   27.6631    5.9584 H         1 UNK         0.3459 
    133 H133       32.2041   26.6278    7.3275 H         1 UNK         0.3459 
    134 H134       35.0935   24.3183    4.6441 H         1 UNK         0.0616 
    135 H135       33.9323   25.0840    3.5828 H         1 UNK         0.0616 
    136 H136       36.8635   23.8698    1.1875 H         1 UNK         0.0634 
    137 H137       36.0418   23.0843    2.5150 H         1 UNK         0.0634 
@<TRIPOS>BOND
     1    1    2 1    
     2    1   72 1    
     3    1   73 1    
     4    1   74 1    
     5    2    3 2    
     6    2    4 am   BACKBONE|DICT|INTERRES
     7    4    5 1    
     8    4   75 1    
     9    5    6 1    
    10    5   35 1    
    11    5   76 1    
    12    6    7 1    
    13    6   77 1    
    14    6   78 1    
    15    7    8 1    
    16    8    9 1    
    17    8   79 1    
    18    8   80 1    
    19    9   10 ar   
    20    9   14 ar   
    21   10   11 ar   
    22   10   81 1    
    23   11   12 ar   
    24   11   71 1    
    25   12   13 ar   
    26   12   82 1    
    27   13   14 ar   
    28   13   15 1    
    29   14   83 1    
    30   15   16 1    
    31   15   84 1    
    32   15   85 1    
    33   16   17 1    
    34   17   18 1    
    35   17   86 1    
    36   17   87 1    
    37   18   19 1    
    38   18   37 1    
    39   18   88 1    
    40   19   20 am   BACKBONE|DICT|INTERRES
    41   19   89 1    
    42   20   21 2    
    43   20   22 1    
    44   22   23 1    
    45   22   24 1    
    46   22   90 1    
    47   23   91 1    
    48   23   92 1    
    49   23   93 1    
    50   24   25 am   BACKBONE|DICT|INTERRES
    51   24   94 1    
    52   25   26 2    
    53   25   27 1    
    54   27   28 1    
    55   27   29 1    
    56   27   95 1    
    57   28   96 1    
    58   28   97 1    
    59   28   98 1    
    60   29   30 am   BACKBONE|DICT|INTERRES
    61   29   99 1    
    62   30   31 2    
    63   30   32 1    
    64   32   33 1    
    65   32   34 1    
    66   32  100 1    
    67   33  101 1    
    68   33  102 1    
    69   33  103 1    
    70   34   35 am   BACKBONE|DICT|INTERRES
    71   34  104 1    
    72   35   36 2    
    73   37   38 2    
    74   37   39 am   BACKBONE|DICT|INTERRES
    75   39   40 1    
    76   39  105 1    
    77   40   41 1    
    78   40   42 1    
    79   40  106 1    
    80   41  107 1    
    81   41  108 1    
    82   41  109 1    
    83   42   43 2    
    84   42   44 am   BACKBONE|DICT|INTERRES
    85   44   45 1    
    86   44  110 1    
    87   45   46 1    
    88   45   47 1    
    89   45  111 1    
    90   46  112 1    
    91   46  113 1    
    92   46  114 1    
    93   47   48 2    
    94   47   49 am   BACKBONE|DICT|INTERRES
    95   49   50 1    
    96   49  115 1    
    97   50   51 1    
    98   50   52 1    
    99   50  116 1    
   100   51  117 1    
   101   51  118 1    
   102   51  119 1    
   103   52   53 2    
   104   52   54 am   BACKBONE|DICT|INTERRES
   105   54   55 1    
   106   54  120 1    
   107   55   56 1    
   108   55   57 1    
   109   55  121 1    
   110   56  122 1    
   111   56  123 1    
   112   56  124 1    
   113   57   58 2    
   114   57   59 am   BACKBONE|DICT|INTERRES
   115   59   60 1    
   116   59  125 1    
   117   60   61 1    
   118   60   62 1    
   119   60  126 1    
   120   61  127 1    
   121   61  128 1    
   122   61  129 1    
   123   62   63 2    
   124   62   64 am   BACKBONE|DICT|INTERRES
   125   64   65 1    
   126   64  130 1    
   127   65   66 1    
   128   65   69 1    
   129   65  131 1    
   130   66   67 am   BACKBONE|DICT|INTERRES
   131   66   68 2    
   132   67  132 1    
   133   67  133 1    
   134   69   70 1    
   135   69  134 1    
   136   69  135 1    
   137   70   71 1    
   138   71  136 1    
   139   71  137 1    
@<TRIPOS>SUBSTRUCTURE
     1 UNK         1 GROUP             0       ****    0 ROOT    
