@<TRIPOS>MOLECULE
3R136
137   139    1
SMALL
USER_CHARGES


@<TRIPOS>ATOM
      1 CA         32.3549   23.6268    4.9732 C.3       0 UNK        -0.1979 
      2 C          30.9465   23.5571    4.4038 C.2       0 UNK         0.4864 
      3 O          29.9888   23.3552    5.1522 O.2       0 UNK        -0.5359 
      4 N          30.8043   23.7011    3.0797 N.am      1 UNK        -0.4318 
      5 CA         29.5613   23.4560    2.3345 C.3       1 UNK         0.0824 
      6 C6         29.8214   22.9830    0.8770 C.3       12 UNK        -0.0944 
      7 S7         31.0913   21.6661    0.7674 S.3       12 UNK        -0.2672 
      8 C8         32.1228   22.1649   -0.6562 C.3       12 UNK         0.0333 
      9 C9         32.5240   23.6338   -0.6215 C.ar      12 UNK        -0.0807 
     10 C10        33.4088   24.1129    0.3490 C.ar      12 UNK        -0.0894 
     11 C11        33.7228   25.4748    0.4077 C.ar      12 UNK        -0.0804 
     12 C12        33.1541   26.3561   -0.5184 C.ar      12 UNK        -0.0824 
     13 C13        32.2724   25.8868   -1.4955 C.ar      12 UNK        -0.0762 
     14 C14        31.9771   24.5222   -1.5519 C.ar      12 UNK        -0.0782 
     15 C15        31.6453   26.8477   -2.4970 C.3       12 UNK         0.0230 
     16 S16        29.8239   26.7648   -2.4903 S.3       12 UNK        -0.2608 
     17 C17        29.4161   27.6328   -0.9403 C.3       12 UNK        -0.0989 
     18 CA         27.8998   27.9567   -0.8777 C.3       5 UNK         0.0716 
     19 N          27.1109   26.7415   -0.6747 N.am      5 UNK        -0.4135 
     20 C          25.9309   26.4807   -1.2468 C.2       4 UNK         0.5031 
     21 O          25.3574   27.2448   -2.0249 O.2       4 UNK        -0.5229 
     22 CA         25.2814   25.1325   -0.9055 C.3       4 UNK         0.0329 
     23 CB         26.0511   23.9774   -1.5705 C.3       4 UNK        -0.2001 
     24 N          25.2362   24.9122    0.5409 N.am      4 UNK        -0.4303 
     25 C          24.1154   24.8036    1.2698 C.2       3 UNK         0.5044 
     26 O          22.9805   24.8994    0.8004 O.2       3 UNK        -0.5152 
     27 CA         24.2678   24.5127    2.7770 C.3       3 UNK         0.0319 
     28 CB         24.0120   23.0237    3.0623 C.3       3 UNK        -0.2001 
     29 N          25.5843   24.8761    3.3027 N.am      3 UNK        -0.4354 
     30 C          25.9907   26.1322    3.5329 C.2       2 UNK         0.4964 
     31 O          25.2364   27.1037    3.4818 O.2       2 UNK        -0.5047 
     32 CA         27.4800   26.3463    3.8763 C.3       2 UNK         0.0288 
     33 CB         27.6389   26.7621    5.3471 C.3       2 UNK        -0.2113 
     34 N          28.3560   25.1972    3.6015 N.am      2 UNK        -0.4145 
     35 C          28.5938   24.6607    2.3954 C.2       1 UNK         0.5006 
     36 O          28.0554   25.0690    1.3638 O.2       1 UNK        -0.5103 
     37 C          27.5906   28.9783    0.2310 C.2       5 UNK         0.5055 
     38 O          26.9988   28.6366    1.2560 O.2       5 UNK        -0.5220 
     39 N          28.0223   30.2217    0.0024 N.am      6 UNK        -0.4450 
     40 CA         28.0140   31.3127    0.9744 C.3       6 UNK         0.0367 
     41 CB         26.7222   32.1403    0.8294 C.3       6 UNK        -0.1929 
     42 C          29.2959   32.1338    0.7732 C.2       6 UNK         0.5070 
     43 O          29.2371   33.3543    0.6170 O.2       6 UNK        -0.5237 
     44 N          30.4328   31.4317    0.7192 N.am      7 UNK        -0.4739 
     45 CA         31.7469   31.9749    0.3910 C.3       7 UNK         0.0276 
     46 CB         31.8733   32.1541   -1.1363 C.3       7 UNK        -0.1927 
     47 C          32.8117   31.0162    0.9466 C.2       7 UNK         0.5013 
     48 O          33.1747   30.0675    0.2524 O.2       7 UNK        -0.5193 
     49 N          33.2929   31.2001    2.1811 N.am      8 UNK        -0.4253 
     50 CA         32.9058   32.1903    3.1831 C.3       8 UNK         0.0242 
     51 CB         33.7468   33.4689    3.0012 C.3       8 UNK        -0.2000 
     52 C          33.1381   31.5740    4.5692 C.2       8 UNK         0.4948 
     53 O          33.7654   30.5136    4.6667 O.2       8 UNK        -0.5275 
     54 N          32.6311   32.2466    5.6132 N.am      9 UNK        -0.4246 
     55 CA         32.6988   31.8540    7.0274 C.3       9 UNK         0.0261 
     56 CB         34.1449   31.9786    7.5614 C.3       9 UNK        -0.1959 
     57 C          32.0615   30.4693    7.2451 C.2       9 UNK         0.5033 
     58 O          30.8413   30.3506    7.1205 O.2       9 UNK        -0.5390 
     59 N          32.8856   29.4431    7.4996 N.am      10 UNK        -0.4215 
     60 CA         32.4785   28.0372    7.5975 C.3       10 UNK         0.0240 
     61 CB         33.6890   27.1854    8.0127 C.3       10 UNK        -0.1982 
     62 C          31.8493   27.4782    6.3066 C.2       10 UNK         0.4970 
     63 O          31.0355   26.5608    6.3951 O.2       10 UNK        -0.4916 
     64 N          32.2195   28.0449    5.1520 N.am      11 UNK        -0.4279 
     65 CA         31.6330   27.7646    3.8342 C.3       11 UNK         0.1003 
     66 C          30.5758   28.8275    3.4099 C.2       11 UNK         0.5709 
     67 N          30.0754   29.6755    4.3022 N.am      11 UNK        -0.7358 
     68 O          30.2026   28.8967    2.2422 O.2       11 UNK        -0.4999 
     69 C69        32.7344   27.5909    2.7573 C.3       12 UNK        -0.0954 
     70 S70        33.8439   26.1850    3.0866 S.3       12 UNK        -0.2268 
     71 C71        34.6714   25.9963    1.4770 C.3       12 UNK         0.0203 
     72 H72        32.5376   24.6017    5.4214 H         1 UNK         0.0888 
     73 H73        32.4878   22.8682    5.7438 H         1 UNK         0.0888 
     74 H74        33.1070   23.4553    4.2034 H         1 UNK         0.0888 
     75 H75        31.6152   23.8942    2.5088 H         1 UNK         0.3017 
     76 H76        29.0398   22.6345    2.8308 H         1 UNK         0.0873 
     77 H77        28.8999   22.5936    0.4404 H         1 UNK         0.0745 
     78 H78        30.0996   23.8326    0.2558 H         1 UNK         0.0745 
     79 H79        33.0215   21.5468   -0.6745 H         1 UNK         0.0705 
     80 H80        31.5789   21.9364   -1.5741 H         1 UNK         0.0705 
     81 H81        33.8360   23.4295    1.0705 H         1 UNK         0.1334 
     82 H82        33.3899   27.4111   -0.4688 H         1 UNK         0.1417 
     83 H83        31.2906   24.1589   -2.3049 H         1 UNK         0.1562 
     84 H84        32.0031   26.5923   -3.4953 H         1 UNK         0.0748 
     85 H85        31.9618   27.8754   -2.3107 H         1 UNK         0.0748 
     86 H86        30.0214   28.5405   -0.8976 H         1 UNK         0.0940 
     87 H87        29.7247   27.0228   -0.0881 H         1 UNK         0.0940 
     88 H88        27.6096   28.4216   -1.8228 H         1 UNK         0.0703 
     89 H89        27.4874   26.0898    0.0103 H         1 UNK         0.3081 
     90 H90        24.2722   25.1435   -1.3226 H         1 UNK         0.0719 
     91 H91        26.1161   24.1217   -2.6498 H         1 UNK         0.0809 
     92 H92        27.0703   23.8936   -1.1903 H         1 UNK         0.0809 
     93 H93        25.5527   23.0229   -1.4007 H         1 UNK         0.0809 
     94 H94        26.1320   24.8722    1.0156 H         1 UNK         0.2990 
     95 H95        23.5092   25.0960    3.3037 H         1 UNK         0.0690 
     96 H96        24.0536   22.8109    4.1307 H         1 UNK         0.0788 
     97 H97        24.7409   22.3845    2.5622 H         1 UNK         0.0788 
     98 H98        23.0228   22.7241    2.7128 H         1 UNK         0.0788 
     99 H99        26.2549   24.1299    3.4102 H         1 UNK         0.2993 
    100 H100       27.8267   27.1727    3.2532 H         1 UNK         0.0949 
    101 H101       27.4034   25.9431    6.0276 H         1 UNK         0.0767 
    102 H102       28.6555   27.0924    5.5529 H         1 UNK         0.0767 
    103 H103       26.9807   27.5961    5.5950 H         1 UNK         0.0767 
    104 H104       28.8261   24.7722    4.3966 H         1 UNK         0.3013 
    105 H105       28.5037   30.4223   -0.8640 H         1 UNK         0.3121 
    106 H106       28.0559   30.9061    1.9873 H         1 UNK         0.0774 
    107 H107       26.6369   32.5826   -0.1638 H         1 UNK         0.0815 
    108 H108       25.8383   31.5256    1.0001 H         1 UNK         0.0815 
    109 H109       26.6958   32.9540    1.5552 H         1 UNK         0.0815 
    110 H110       30.4060   30.4417    0.9533 H         1 UNK         0.2987 
    111 H111       31.8626   32.9584    0.8466 H         1 UNK         0.0949 
    112 H112       31.1667   32.8950   -1.5104 H         1 UNK         0.0806 
    113 H113       32.8729   32.4970   -1.4059 H         1 UNK         0.0806 
    114 H114       31.6922   31.2207   -1.6709 H         1 UNK         0.0806 
    115 H115       33.9436   30.5189    2.5518 H         1 UNK         0.3010 
    116 H116       31.8412   32.4163    3.0976 H         1 UNK         0.0829 
    117 H117       34.8088   33.2727    3.1556 H         1 UNK         0.0813 
    118 H118       33.4529   34.2404    3.7138 H         1 UNK         0.0813 
    119 H119       33.6349   33.8962    2.0054 H         1 UNK         0.0813 
    120 H120       32.1055   33.0896    5.4269 H         1 UNK         0.3038 
    121 H121       32.0815   32.5633    7.5811 H         1 UNK         0.0769 
    122 H122       34.2003   31.7088    8.6170 H         1 UNK         0.0811 
    123 H123       34.4998   33.0060    7.4789 H         1 UNK         0.0811 
    124 H124       34.8499   31.3487    7.0180 H         1 UNK         0.0811 
    125 H125       33.8762   29.6339    7.5451 H         1 UNK         0.3204 
    126 H126       31.7229   27.9676    8.3828 H         1 UNK         0.0748 
    127 H127       34.4888   27.2330    7.2724 H         1 UNK         0.0771 
    128 H128       34.0954   27.5110    8.9706 H         1 UNK         0.0771 
    129 H129       33.4087   26.1365    8.1215 H         1 UNK         0.0771 
    130 H130       32.8813   28.8150    5.1702 H         1 UNK         0.2980 
    131 H131       31.0791   26.8255    3.8796 H         1 UNK         0.0545 
    132 H132       30.3653   29.6588    5.2733 H         1 UNK         0.3459 
    133 H133       29.3783   30.3373    4.0072 H         1 UNK         0.3459 
    134 H134       33.3437   28.4902    2.6787 H         1 UNK         0.0616 
    135 H135       32.2754   27.4404    1.7808 H         1 UNK         0.0616 
    136 H136       35.1034   26.9532    1.1793 H         1 UNK         0.0634 
    137 H137       35.5073   25.3046    1.5904 H         1 UNK         0.0634 
@<TRIPOS>BOND
     1    1    2 1    
     2    1   72 1    
     3    1   73 1    
     4    1   74 1    
     5    2    3 2    
     6    2    4 am   BACKBONE|DICT|INTERRES
     7    4    5 1    
     8    4   75 1    
     9    5    6 1    
    10    5   35 1    
    11    5   76 1    
    12    6    7 1    
    13    6   77 1    
    14    6   78 1    
    15    7    8 1    
    16    8    9 1    
    17    8   79 1    
    18    8   80 1    
    19    9   10 ar   
    20    9   14 ar   
    21   10   11 ar   
    22   10   81 1    
    23   11   12 ar   
    24   11   71 1    
    25   12   13 ar   
    26   12   82 1    
    27   13   14 ar   
    28   13   15 1    
    29   14   83 1    
    30   15   16 1    
    31   15   84 1    
    32   15   85 1    
    33   16   17 1    
    34   17   18 1    
    35   17   86 1    
    36   17   87 1    
    37   18   19 1    
    38   18   37 1    
    39   18   88 1    
    40   19   20 am   BACKBONE|DICT|INTERRES
    41   19   89 1    
    42   20   21 2    
    43   20   22 1    
    44   22   23 1    
    45   22   24 1    
    46   22   90 1    
    47   23   91 1    
    48   23   92 1    
    49   23   93 1    
    50   24   25 am   BACKBONE|DICT|INTERRES
    51   24   94 1    
    52   25   26 2    
    53   25   27 1    
    54   27   28 1    
    55   27   29 1    
    56   27   95 1    
    57   28   96 1    
    58   28   97 1    
    59   28   98 1    
    60   29   30 am   BACKBONE|DICT|INTERRES
    61   29   99 1    
    62   30   31 2    
    63   30   32 1    
    64   32   33 1    
    65   32   34 1    
    66   32  100 1    
    67   33  101 1    
    68   33  102 1    
    69   33  103 1    
    70   34   35 am   BACKBONE|DICT|INTERRES
    71   34  104 1    
    72   35   36 2    
    73   37   38 2    
    74   37   39 am   BACKBONE|DICT|INTERRES
    75   39   40 1    
    76   39  105 1    
    77   40   41 1    
    78   40   42 1    
    79   40  106 1    
    80   41  107 1    
    81   41  108 1    
    82   41  109 1    
    83   42   43 2    
    84   42   44 am   BACKBONE|DICT|INTERRES
    85   44   45 1    
    86   44  110 1    
    87   45   46 1    
    88   45   47 1    
    89   45  111 1    
    90   46  112 1    
    91   46  113 1    
    92   46  114 1    
    93   47   48 2    
    94   47   49 am   BACKBONE|DICT|INTERRES
    95   49   50 1    
    96   49  115 1    
    97   50   51 1    
    98   50   52 1    
    99   50  116 1    
   100   51  117 1    
   101   51  118 1    
   102   51  119 1    
   103   52   53 2    
   104   52   54 am   BACKBONE|DICT|INTERRES
   105   54   55 1    
   106   54  120 1    
   107   55   56 1    
   108   55   57 1    
   109   55  121 1    
   110   56  122 1    
   111   56  123 1    
   112   56  124 1    
   113   57   58 2    
   114   57   59 am   BACKBONE|DICT|INTERRES
   115   59   60 1    
   116   59  125 1    
   117   60   61 1    
   118   60   62 1    
   119   60  126 1    
   120   61  127 1    
   121   61  128 1    
   122   61  129 1    
   123   62   63 2    
   124   62   64 am   BACKBONE|DICT|INTERRES
   125   64   65 1    
   126   64  130 1    
   127   65   66 1    
   128   65   69 1    
   129   65  131 1    
   130   66   67 am   BACKBONE|DICT|INTERRES
   131   66   68 2    
   132   67  132 1    
   133   67  133 1    
   134   69   70 1    
   135   69  134 1    
   136   69  135 1    
   137   70   71 1    
   138   71  136 1    
   139   71  137 1    
@<TRIPOS>SUBSTRUCTURE
     1 UNK         1 GROUP             0       ****    0 ROOT    
