@<TRIPOS>MOLECULE
3R136
137   139    1
SMALL
USER_CHARGES


@<TRIPOS>ATOM
      1 CA         29.2625   20.5113    2.3311 C.3       0 UNK        -0.1979 
      2 C          29.3693   21.4288    1.1222 C.2       0 UNK         0.4864 
      3 O          28.5310   22.3162    0.9651 O.2       0 UNK        -0.5359 
      4 N          30.3970   21.2173    0.2842 N.am      1 UNK        -0.4318 
      5 CA         30.7260   21.9486   -0.9499 C.3       1 UNK         0.0824 
      6 C6         31.5915   23.2279   -0.7175 C.3       12 UNK        -0.0944 
      7 S7         30.8238   24.5809    0.2465 S.3       12 UNK        -0.2672 
      8 C8         31.6015   24.3107    1.8678 C.3       12 UNK         0.0333 
      9 C9         30.9549   25.1654    2.9448 C.ar      12 UNK        -0.0807 
     10 C10        31.5033   26.4043    3.2841 C.ar      12 UNK        -0.0894 
     11 C11        30.9282   27.1866    4.2906 C.ar      12 UNK        -0.0804 
     12 C12        29.8087   26.7027    4.9773 C.ar      12 UNK        -0.0824 
     13 C13        29.2239   25.4852    4.6153 C.ar      12 UNK        -0.0762 
     14 C14        29.8064   24.7169    3.6030 C.ar      12 UNK        -0.0782 
     15 C15        27.9479   25.0090    5.2950 C.3       12 UNK         0.0230 
     16 S16        26.4662   25.4516    4.3258 S.3       12 UNK        -0.2608 
     17 C17        26.2769   27.2327    4.6890 C.3       12 UNK        -0.0989 
     18 CA         26.9654   28.1297    3.6331 C.3       5 UNK         0.0716 
     19 N          26.4435   27.9292    2.2824 N.am      5 UNK        -0.4135 
     20 C          27.0126   28.4164    1.1731 C.2       4 UNK         0.5031 
     21 O          28.0067   29.1459    1.1817 O.2       4 UNK        -0.5229 
     22 CA         26.3970   27.9650   -0.1626 C.3       4 UNK         0.0329 
     23 CB         27.1234   28.5663   -1.3810 C.3       4 UNK        -0.2001 
     24 N          26.4265   26.5058   -0.2704 N.am      4 UNK        -0.4303 
     25 C          25.5381   25.6590    0.2681 C.2       3 UNK         0.5044 
     26 O          24.5565   26.0371    0.9105 O.2       3 UNK        -0.5152 
     27 CA         25.8120   24.1486    0.1111 C.3       3 UNK         0.0319 
     28 CB         24.5210   23.3323   -0.1092 C.3       3 UNK        -0.2001 
     29 N          26.8337   23.8254   -0.8963 N.am      3 UNK        -0.4354 
     30 C          26.7642   24.0142   -2.2257 C.2       2 UNK         0.4964 
     31 O          25.7604   24.4378   -2.7995 O.2       2 UNK        -0.5047 
     32 CA         28.0302   23.7431   -3.0641 C.3       2 UNK         0.0288 
     33 CB         28.4105   24.9840   -3.8930 C.3       2 UNK        -0.2113 
     34 N          29.1863   23.3658   -2.2496 N.am      2 UNK        -0.4145 
     35 C          29.5086   22.1187   -1.8896 C.2       1 UNK         0.5006 
     36 O          28.8916   21.1188   -2.2650 O.2       1 UNK        -0.5103 
     37 C          26.9480   29.6141    4.0395 C.2       5 UNK         0.5055 
     38 O          26.0333   30.3487    3.6579 O.2       5 UNK        -0.5220 
     39 N          27.9975   30.0274    4.7639 N.am      6 UNK        -0.4450 
     40 CA         28.3883   31.3997    5.1148 C.3       6 UNK         0.0367 
     41 CB         27.2915   32.1428    5.9023 C.3       6 UNK        -0.1929 
     42 C          28.8734   32.2190    3.9048 C.2       6 UNK         0.5070 
     43 O          29.9396   32.8267    3.9869 O.2       6 UNK        -0.5237 
     44 N          28.1216   32.1905    2.7958 N.am      7 UNK        -0.4739 
     45 CA         28.4250   32.8720    1.5321 C.3       7 UNK         0.0276 
     46 CB         27.2561   32.6753    0.5537 C.3       7 UNK        -0.1927 
     47 C          29.7520   32.4286    0.8904 C.2       7 UNK         0.5013 
     48 O          30.4620   33.2673    0.3347 O.2       7 UNK        -0.5193 
     49 N          30.0793   31.1339    1.0094 N.am      8 UNK        -0.4253 
     50 CA         31.3488   30.5421    0.5771 C.3       8 UNK         0.0242 
     51 CB         31.2246   29.0096    0.6084 C.3       8 UNK        -0.2000 
     52 C          32.5764   31.0021    1.3894 C.2       8 UNK         0.4948 
     53 O          33.6972   30.8232    0.9104 O.2       8 UNK        -0.5275 
     54 N          32.3609   31.5689    2.5885 N.am      9 UNK        -0.4246 
     55 CA         33.3271   32.1507    3.5350 C.3       9 UNK         0.0261 
     56 CB         34.0263   33.3804    2.9248 C.3       9 UNK        -0.1959 
     57 C          34.3589   31.1744    4.1312 C.2       9 UNK         0.5033 
     58 O          34.5632   31.1814    5.3462 O.2       9 UNK        -0.5390 
     59 N          34.9904   30.3502    3.2893 N.am      10 UNK        -0.4215 
     60 CA         35.9918   29.3451    3.6490 C.3       10 UNK         0.0240 
     61 CB         36.8551   29.0433    2.4097 C.3       10 UNK        -0.1982 
     62 C          35.3317   28.0831    4.2344 C.2       10 UNK         0.4970 
     63 O          35.3953   27.0126    3.6277 O.2       10 UNK        -0.4916 
     64 N          34.6753   28.2444    5.3887 N.am      11 UNK        -0.4279 
     65 CA         33.9254   27.1855    6.0820 C.3       11 UNK         0.1003 
     66 C          34.8135   26.1442    6.8252 C.2       11 UNK         0.5709 
     67 N          36.1146   26.3629    6.9784 N.am      11 UNK        -0.7358 
     68 O          34.3125   25.1128    7.2666 O.2       11 UNK        -0.4999 
     69 C69        32.8455   27.7704    7.0340 C.3       12 UNK        -0.0954 
     70 S70        31.6555   28.9808    6.3419 S.3       12 UNK        -0.2268 
     71 C71        31.4911   28.5759    4.5706 C.3       12 UNK         0.0203 
     72 H72        30.0632   19.7724    2.3566 H         1 UNK         0.0888 
     73 H73        29.3106   21.0955    3.2495 H         1 UNK         0.0888 
     74 H74        28.3110   19.9807    2.3142 H         1 UNK         0.0888 
     75 H75        31.0161   20.4442    0.4833 H         1 UNK         0.3017 
     76 H76        31.3717   21.2610   -1.4987 H         1 UNK         0.0873 
     77 H77        32.5213   22.9385   -0.2253 H         1 UNK         0.0745 
     78 H78        31.9092   23.6405   -1.6769 H         1 UNK         0.0745 
     79 H79        32.6677   24.5319    1.7968 H         1 UNK         0.0705 
     80 H80        31.5246   23.2582    2.1427 H         1 UNK         0.0705 
     81 H81        32.3750   26.7632    2.7533 H         1 UNK         0.1334 
     82 H82        29.3597   27.2944    5.7623 H         1 UNK         0.1417 
     83 H83        29.3573   23.7756    3.3158 H         1 UNK         0.1562 
     84 H84        27.8697   25.4139    6.3051 H         1 UNK         0.0748 
     85 H85        27.9798   23.9242    5.4072 H         1 UNK         0.0748 
     86 H86        26.6696   27.4322    5.6878 H         1 UNK         0.0940 
     87 H87        25.2100   27.4595    4.7376 H         1 UNK         0.0940 
     88 H88        28.0108   27.8383    3.5640 H         1 UNK         0.0703 
     89 H89        25.6378   27.3227    2.1844 H         1 UNK         0.3081 
     90 H90        25.3610   28.3098   -0.1825 H         1 UNK         0.0719 
     91 H91        28.1720   28.2677   -1.4151 H         1 UNK         0.0809 
     92 H92        26.6554   28.2550   -2.3151 H         1 UNK         0.0809 
     93 H93        27.0965   29.6563   -1.3531 H         1 UNK         0.0809 
     94 H94        27.2270   26.1067   -0.7369 H         1 UNK         0.2990 
     95 H95        26.2346   23.8320    1.0659 H         1 UNK         0.0690 
     96 H96        24.7371   22.2681   -0.2036 H         1 UNK         0.0788 
     97 H97        23.9857   23.6489   -1.0046 H         1 UNK         0.0788 
     98 H98        23.8377   23.4489    0.7328 H         1 UNK         0.0788 
     99 H99        27.6840   23.4282   -0.5043 H         1 UNK         0.2993 
    100 H100       27.7904   22.9312   -3.7543 H         1 UNK         0.0949 
    101 H101       28.6277   25.8440   -3.2580 H         1 UNK         0.0767 
    102 H102       29.2881   24.7934   -4.5112 H         1 UNK         0.0767 
    103 H103       27.6018   25.2718   -4.5664 H         1 UNK         0.0767 
    104 H104       29.7281   24.1200   -1.8465 H         1 UNK         0.3013 
    105 H105       28.6840   29.3320    5.0163 H         1 UNK         0.3121 
    106 H106       29.2461   31.2947    5.7818 H         1 UNK         0.0774 
    107 H107       27.6601   33.1047    6.2608 H         1 UNK         0.0815 
    108 H108       26.4099   32.3453    5.2938 H         1 UNK         0.0815 
    109 H109       26.9738   31.5720    6.7747 H         1 UNK         0.0815 
    110 H110       27.2684   31.6396    2.8306 H         1 UNK         0.2987 
    111 H111       28.5127   33.9384    1.7508 H         1 UNK         0.0949 
    112 H112       27.4471   33.1852   -0.3916 H         1 UNK         0.0806 
    113 H113       27.0915   31.6211    0.3288 H         1 UNK         0.0806 
    114 H114       26.3281   33.0802    0.9578 H         1 UNK         0.0806 
    115 H115       29.3766   30.4921    1.3699 H         1 UNK         0.3010 
    116 H116       31.5232   30.8467   -0.4569 H         1 UNK         0.0829 
    117 H117       30.4728   28.6606   -0.0997 H         1 UNK         0.0813 
    118 H118       32.1657   28.5261    0.3425 H         1 UNK         0.0813 
    119 H119       30.9363   28.6505    1.5956 H         1 UNK         0.0813 
    120 H120       31.3949   31.6918    2.8697 H         1 UNK         0.3038 
    121 H121       32.7252   32.5055    4.3734 H         1 UNK         0.0769 
    122 H122       34.6754   33.8629    3.6567 H         1 UNK         0.0811 
    123 H123       33.2997   34.1236    2.5962 H         1 UNK         0.0811 
    124 H124       34.6452   33.1156    2.0669 H         1 UNK         0.0811 
    125 H125       34.7158   30.4053    2.3082 H         1 UNK         0.3204 
    126 H126       36.6467   29.7590    4.4186 H         1 UNK         0.0748 
    127 H127       37.6264   28.3068    2.6391 H         1 UNK         0.0771 
    128 H128       36.2572   28.6474    1.5875 H         1 UNK         0.0771 
    129 H129       37.3613   29.9403    2.0524 H         1 UNK         0.0771 
    130 H130       34.6313   29.1746    5.7913 H         1 UNK         0.2980 
    131 H131       33.4086   26.6034    5.3200 H         1 UNK         0.0545 
    132 H132       36.5365   27.2053    6.6231 H         1 UNK         0.3459 
    133 H133       36.6773   25.6782    7.4583 H         1 UNK         0.3459 
    134 H134       33.3290   28.2528    7.8854 H         1 UNK         0.0616 
    135 H135       32.2492   26.9581    7.4537 H         1 UNK         0.0616 
    136 H136       30.8191   29.3073    4.1214 H         1 UNK         0.0634 
    137 H137       32.4454   28.7197    4.0676 H         1 UNK         0.0634 
@<TRIPOS>BOND
     1    1    2 1    
     2    1   72 1    
     3    1   73 1    
     4    1   74 1    
     5    2    3 2    
     6    2    4 am   BACKBONE|DICT|INTERRES
     7    4    5 1    
     8    4   75 1    
     9    5    6 1    
    10    5   35 1    
    11    5   76 1    
    12    6    7 1    
    13    6   77 1    
    14    6   78 1    
    15    7    8 1    
    16    8    9 1    
    17    8   79 1    
    18    8   80 1    
    19    9   10 ar   
    20    9   14 ar   
    21   10   11 ar   
    22   10   81 1    
    23   11   12 ar   
    24   11   71 1    
    25   12   13 ar   
    26   12   82 1    
    27   13   14 ar   
    28   13   15 1    
    29   14   83 1    
    30   15   16 1    
    31   15   84 1    
    32   15   85 1    
    33   16   17 1    
    34   17   18 1    
    35   17   86 1    
    36   17   87 1    
    37   18   19 1    
    38   18   37 1    
    39   18   88 1    
    40   19   20 am   BACKBONE|DICT|INTERRES
    41   19   89 1    
    42   20   21 2    
    43   20   22 1    
    44   22   23 1    
    45   22   24 1    
    46   22   90 1    
    47   23   91 1    
    48   23   92 1    
    49   23   93 1    
    50   24   25 am   BACKBONE|DICT|INTERRES
    51   24   94 1    
    52   25   26 2    
    53   25   27 1    
    54   27   28 1    
    55   27   29 1    
    56   27   95 1    
    57   28   96 1    
    58   28   97 1    
    59   28   98 1    
    60   29   30 am   BACKBONE|DICT|INTERRES
    61   29   99 1    
    62   30   31 2    
    63   30   32 1    
    64   32   33 1    
    65   32   34 1    
    66   32  100 1    
    67   33  101 1    
    68   33  102 1    
    69   33  103 1    
    70   34   35 am   BACKBONE|DICT|INTERRES
    71   34  104 1    
    72   35   36 2    
    73   37   38 2    
    74   37   39 am   BACKBONE|DICT|INTERRES
    75   39   40 1    
    76   39  105 1    
    77   40   41 1    
    78   40   42 1    
    79   40  106 1    
    80   41  107 1    
    81   41  108 1    
    82   41  109 1    
    83   42   43 2    
    84   42   44 am   BACKBONE|DICT|INTERRES
    85   44   45 1    
    86   44  110 1    
    87   45   46 1    
    88   45   47 1    
    89   45  111 1    
    90   46  112 1    
    91   46  113 1    
    92   46  114 1    
    93   47   48 2    
    94   47   49 am   BACKBONE|DICT|INTERRES
    95   49   50 1    
    96   49  115 1    
    97   50   51 1    
    98   50   52 1    
    99   50  116 1    
   100   51  117 1    
   101   51  118 1    
   102   51  119 1    
   103   52   53 2    
   104   52   54 am   BACKBONE|DICT|INTERRES
   105   54   55 1    
   106   54  120 1    
   107   55   56 1    
   108   55   57 1    
   109   55  121 1    
   110   56  122 1    
   111   56  123 1    
   112   56  124 1    
   113   57   58 2    
   114   57   59 am   BACKBONE|DICT|INTERRES
   115   59   60 1    
   116   59  125 1    
   117   60   61 1    
   118   60   62 1    
   119   60  126 1    
   120   61  127 1    
   121   61  128 1    
   122   61  129 1    
   123   62   63 2    
   124   62   64 am   BACKBONE|DICT|INTERRES
   125   64   65 1    
   126   64  130 1    
   127   65   66 1    
   128   65   69 1    
   129   65  131 1    
   130   66   67 am   BACKBONE|DICT|INTERRES
   131   66   68 2    
   132   67  132 1    
   133   67  133 1    
   134   69   70 1    
   135   69  134 1    
   136   69  135 1    
   137   70   71 1    
   138   71  136 1    
   139   71  137 1    
@<TRIPOS>SUBSTRUCTURE
     1 UNK         1 GROUP             0       ****    0 ROOT    
