@<TRIPOS>MOLECULE
3R136
137   139    1
SMALL
USER_CHARGES


@<TRIPOS>ATOM
      1 CA         29.8911   23.5416    4.9150 C.3       0 UNK        -0.1979 
      2 C          29.9936   22.2382    4.1376 C.2       0 UNK         0.4864 
      3 O          30.7303   21.3398    4.5477 O.2       0 UNK        -0.5359 
      4 N          29.2557   22.1323    3.0286 N.am      1 UNK        -0.4318 
      5 CA         29.1298   20.9334    2.2003 C.3       1 UNK         0.0824 
      6 C6         29.8403   21.0950    0.8252 C.3       12 UNK        -0.0944 
      7 S7         29.2267   22.4624   -0.2310 S.3       12 UNK        -0.2672 
      8 C8         30.7667   23.0705   -0.9982 C.3       12 UNK         0.0333 
      9 C9         31.2296   24.4219   -0.4595 C.ar      12 UNK        -0.0807 
     10 C10        31.2876   24.6805    0.9146 C.ar      12 UNK        -0.0894 
     11 C11        31.7438   25.9156    1.3878 C.ar      12 UNK        -0.0804 
     12 C12        32.1644   26.8928    0.4804 C.ar      12 UNK        -0.0824 
     13 C13        32.1175   26.6446   -0.8944 C.ar      12 UNK        -0.0762 
     14 C14        31.6452   25.4121   -1.3555 C.ar      12 UNK        -0.0782 
     15 C15        32.6058   27.6857   -1.8910 C.3       12 UNK         0.0230 
     16 S16        31.2277   28.5959   -2.6583 S.3       12 UNK        -0.2608 
     17 C17        30.8613   29.8674   -1.4040 C.3       12 UNK        -0.0989 
     18 CA         29.4332   29.7349   -0.8219 C.3       5 UNK         0.0716 
     19 N          29.2494   28.4842   -0.0837 N.am      5 UNK        -0.4135 
     20 C          28.0640   28.0113    0.3147 C.2       4 UNK         0.5031 
     21 O          26.9772   28.4854   -0.0300 O.2       4 UNK        -0.5229 
     22 CA         28.0953   26.8349    1.2924 C.3       4 UNK         0.0329 
     23 CB         28.2697   27.3315    2.7409 C.3       4 UNK        -0.2001 
     24 N          26.8526   26.0859    1.1467 N.am      4 UNK        -0.4303 
     25 C          26.6694   24.8194    1.5269 C.2       3 UNK         0.5044 
     26 O          27.5002   24.1809    2.1789 O.2       3 UNK        -0.5152 
     27 CA         25.3671   24.1259    1.0899 C.3       3 UNK         0.0319 
     28 CB         24.6634   24.7853   -0.1156 C.3       3 UNK        -0.2001 
     29 N          25.7135   22.7466    0.7730 N.am      3 UNK        -0.4354 
     30 C          24.9387   21.6652    0.9118 C.2       2 UNK         0.4964 
     31 O          23.7435   21.7057    1.2055 O.2       2 UNK        -0.5047 
     32 CA         25.6285   20.2994    0.7077 C.3       2 UNK         0.0288 
     33 CB         25.3748   19.7730   -0.7143 C.3       2 UNK        -0.2113 
     34 N          27.0759   20.3642    0.9469 N.am      2 UNK        -0.4145 
     35 C          27.6330   20.5627    2.1506 C.2       1 UNK         0.5006 
     36 O          26.9952   20.4937    3.2047 O.2       1 UNK        -0.5103 
     37 C          29.1443   30.9106    0.1272 C.2       5 UNK         0.5055 
     38 O          29.7414   30.9600    1.2020 O.2       5 UNK        -0.5220 
     39 N          28.2728   31.8440   -0.2792 N.am      6 UNK        -0.4450 
     40 CA         27.8332   32.9850    0.5385 C.3       6 UNK         0.0367 
     41 CB         26.7561   33.7733   -0.2236 C.3       6 UNK        -0.1929 
     42 C          28.9675   33.9254    0.9897 C.2       6 UNK         0.5070 
     43 O          28.8659   34.5303    2.0568 O.2       6 UNK        -0.5237 
     44 N          30.0359   34.0089    0.1861 N.am      7 UNK        -0.4739 
     45 CA         31.2468   34.7807    0.4749 C.3       7 UNK         0.0276 
     46 CB         32.0260   34.9817   -0.8358 C.3       7 UNK        -0.1927 
     47 C          32.1571   34.1479    1.5469 C.2       7 UNK         0.5013 
     48 O          33.0544   34.8349    2.0370 O.2       7 UNK        -0.5193 
     49 N          31.9406   32.8690    1.8839 N.am      8 UNK        -0.4253 
     50 CA         32.7490   32.1056    2.8347 C.3       8 UNK         0.0242 
     51 CB         33.9090   31.4132    2.0907 C.3       8 UNK        -0.2000 
     52 C          31.8578   31.1187    3.6006 C.2       8 UNK         0.4948 
     53 O          32.2169   29.9491    3.7389 O.2       8 UNK        -0.5275 
     54 N          30.7004   31.6025    4.0766 N.am      9 UNK        -0.4246 
     55 CA         29.6212   30.7979    4.6649 C.3       9 UNK         0.0261 
     56 CB         28.4186   31.7073    4.9624 C.3       9 UNK        -0.1959 
     57 C          30.0131   29.9861    5.9142 C.2       9 UNK         0.5033 
     58 O          29.4053   28.9461    6.1700 O.2       9 UNK        -0.5390 
     59 N          31.0259   30.4571    6.6550 N.am      10 UNK        -0.4215 
     60 CA         31.6274   29.7528    7.7912 C.3       10 UNK         0.0240 
     61 CB         32.4523   30.7519    8.6196 C.3       10 UNK        -0.1982 
     62 C          32.4988   28.5493    7.3782 C.2       10 UNK         0.4970 
     63 O          32.7455   27.6805    8.2152 O.2       10 UNK        -0.4916 
     64 N          32.9537   28.5214    6.1171 N.am      11 UNK        -0.4279 
     65 CA         33.7899   27.4770    5.5069 C.3       11 UNK         0.1003 
     66 C          35.2269   27.3338    6.0966 C.2       11 UNK         0.5709 
     67 N          35.7395   28.3189    6.8250 N.am      11 UNK        -0.7358 
     68 O          35.9044   26.3342    5.8690 O.2       11 UNK        -0.4999 
     69 C69        33.0248   26.1269    5.3577 C.3       12 UNK        -0.0954 
     70 S70        33.2036   25.4280    3.6844 S.3       12 UNK        -0.2268 
     71 C71        31.7681   26.1990    2.8797 C.3       12 UNK         0.0203 
     72 H72        29.4409   23.3606    5.8905 H         1 UNK         0.0888 
     73 H73        30.8825   23.9634    5.0717 H         1 UNK         0.0888 
     74 H74        29.2816   24.2786    4.3924 H         1 UNK         0.0888 
     75 H75        28.6397   22.9001    2.7583 H         1 UNK         0.3017 
     76 H76        29.6041   20.0890    2.7046 H         1 UNK         0.0873 
     77 H77        30.9031   21.2514    1.0155 H         1 UNK         0.0745 
     78 H78        29.7882   20.1651    0.2562 H         1 UNK         0.0745 
     79 H79        31.5710   22.3441   -0.8787 H         1 UNK         0.0705 
     80 H80        30.5861   23.1389   -2.0721 H         1 UNK         0.0705 
     81 H81        30.9754   23.9214    1.6179 H         1 UNK         0.1334 
     82 H82        32.5349   27.8415    0.8464 H         1 UNK         0.1417 
     83 H83        31.6162   25.2219   -2.4201 H         1 UNK         0.1562 
     84 H84        33.1719   27.1874   -2.6796 H         1 UNK         0.0748 
     85 H85        33.3022   28.3824   -1.4215 H         1 UNK         0.0748 
     86 H86        30.9847   30.8381   -1.8888 H         1 UNK         0.0940 
     87 H87        31.6083   29.8365   -0.6081 H         1 UNK         0.0940 
     88 H88        28.7163   29.7584   -1.6458 H         1 UNK         0.0703 
     89 H89        30.0924   28.0314    0.2369 H         1 UNK         0.3081 
     90 H90        28.9262   26.1824    1.0214 H         1 UNK         0.0719 
     91 H91        27.4515   27.9865    3.0424 H         1 UNK         0.0809 
     92 H92        28.3121   26.5036    3.4481 H         1 UNK         0.0809 
     93 H93        29.1965   27.8954    2.8513 H         1 UNK         0.0809 
     94 H94        26.1449   26.5618    0.6004 H         1 UNK         0.2990 
     95 H95        24.6935   24.1382    1.9491 H         1 UNK         0.0690 
     96 H96        23.7854   24.2142   -0.4182 H         1 UNK         0.0788 
     97 H97        25.3245   24.8557   -0.9805 H         1 UNK         0.0788 
     98 H98        24.3160   25.7905    0.1255 H         1 UNK         0.0788 
     99 H99        26.6970   22.6055    0.5801 H         1 UNK         0.2993 
    100 H100       25.1902   19.5981    1.4212 H         1 UNK         0.0949 
    101 H101       25.8064   18.7815   -0.8531 H         1 UNK         0.0767 
    102 H102       24.3054   19.6907   -0.9140 H         1 UNK         0.0767 
    103 H103       25.7982   20.4341   -1.4718 H         1 UNK         0.0767 
    104 H104       27.6683   20.4469    0.1317 H         1 UNK         0.3013 
    105 H105       27.8256   31.7345   -1.1786 H         1 UNK         0.3121 
    106 H106       27.3791   32.5770    1.4442 H         1 UNK         0.0774 
    107 H107       26.3931   34.6129    0.3712 H         1 UNK         0.0815 
    108 H108       27.1395   34.1800   -1.1602 H         1 UNK         0.0815 
    109 H109       25.8937   33.1478   -0.4549 H         1 UNK         0.0815 
    110 H110       30.0266   33.4794   -0.6733 H         1 UNK         0.2987 
    111 H111       30.9466   35.7623    0.8485 H         1 UNK         0.0949 
    112 H112       32.3531   34.0320   -1.2613 H         1 UNK         0.0806 
    113 H113       31.4215   35.4960   -1.5832 H         1 UNK         0.0806 
    114 H114       32.9178   35.5886   -0.6719 H         1 UNK         0.0806 
    115 H115       31.1512   32.3694    1.4822 H         1 UNK         0.3010 
    116 H116       33.1722   32.7787    3.5834 H         1 UNK         0.0829 
    117 H117       34.5444   32.1383    1.5821 H         1 UNK         0.0813 
    118 H118       34.5438   30.8577    2.7824 H         1 UNK         0.0813 
    119 H119       33.5407   30.7077    1.3448 H         1 UNK         0.0813 
    120 H120       30.4899   32.5758    3.9060 H         1 UNK         0.3038 
    121 H121       29.3161   30.0782    3.9030 H         1 UNK         0.0769 
    122 H122       28.6669   32.4799    5.6911 H         1 UNK         0.0811 
    123 H123       27.5843   31.1322    5.3666 H         1 UNK         0.0811 
    124 H124       28.0616   32.1997    4.0574 H         1 UNK         0.0811 
    125 H125       31.4536   31.3277    6.3747 H         1 UNK         0.3204 
    126 H126       30.8221   29.3696    8.4217 H         1 UNK         0.0748 
    127 H127       32.8933   30.2665    9.4916 H         1 UNK         0.0771 
    128 H128       33.2688   31.1835    8.0392 H         1 UNK         0.0771 
    129 H129       31.8320   31.5697    8.9872 H         1 UNK         0.0771 
    130 H130       32.6670   29.2501    5.4703 H         1 UNK         0.2980 
    131 H131       33.9700   27.8727    4.5068 H         1 UNK         0.0545 
    132 H132       35.2020   29.1493    7.0121 H         1 UNK         0.3459 
    133 H133       36.6722   28.2248    7.1948 H         1 UNK         0.3459 
    134 H134       31.9588   26.2564    5.5532 H         1 UNK         0.0616 
    135 H135       33.3601   25.3904    6.0900 H         1 UNK         0.0616 
    136 H136       30.8509   25.8292    3.3372 H         1 UNK         0.0634 
    137 H137       31.7892   27.2751    3.0612 H         1 UNK         0.0634 
@<TRIPOS>BOND
     1    1    2 1    
     2    1   72 1    
     3    1   73 1    
     4    1   74 1    
     5    2    3 2    
     6    2    4 am   BACKBONE|DICT|INTERRES
     7    4    5 1    
     8    4   75 1    
     9    5    6 1    
    10    5   35 1    
    11    5   76 1    
    12    6    7 1    
    13    6   77 1    
    14    6   78 1    
    15    7    8 1    
    16    8    9 1    
    17    8   79 1    
    18    8   80 1    
    19    9   10 ar   
    20    9   14 ar   
    21   10   11 ar   
    22   10   81 1    
    23   11   12 ar   
    24   11   71 1    
    25   12   13 ar   
    26   12   82 1    
    27   13   14 ar   
    28   13   15 1    
    29   14   83 1    
    30   15   16 1    
    31   15   84 1    
    32   15   85 1    
    33   16   17 1    
    34   17   18 1    
    35   17   86 1    
    36   17   87 1    
    37   18   19 1    
    38   18   37 1    
    39   18   88 1    
    40   19   20 am   BACKBONE|DICT|INTERRES
    41   19   89 1    
    42   20   21 2    
    43   20   22 1    
    44   22   23 1    
    45   22   24 1    
    46   22   90 1    
    47   23   91 1    
    48   23   92 1    
    49   23   93 1    
    50   24   25 am   BACKBONE|DICT|INTERRES
    51   24   94 1    
    52   25   26 2    
    53   25   27 1    
    54   27   28 1    
    55   27   29 1    
    56   27   95 1    
    57   28   96 1    
    58   28   97 1    
    59   28   98 1    
    60   29   30 am   BACKBONE|DICT|INTERRES
    61   29   99 1    
    62   30   31 2    
    63   30   32 1    
    64   32   33 1    
    65   32   34 1    
    66   32  100 1    
    67   33  101 1    
    68   33  102 1    
    69   33  103 1    
    70   34   35 am   BACKBONE|DICT|INTERRES
    71   34  104 1    
    72   35   36 2    
    73   37   38 2    
    74   37   39 am   BACKBONE|DICT|INTERRES
    75   39   40 1    
    76   39  105 1    
    77   40   41 1    
    78   40   42 1    
    79   40  106 1    
    80   41  107 1    
    81   41  108 1    
    82   41  109 1    
    83   42   43 2    
    84   42   44 am   BACKBONE|DICT|INTERRES
    85   44   45 1    
    86   44  110 1    
    87   45   46 1    
    88   45   47 1    
    89   45  111 1    
    90   46  112 1    
    91   46  113 1    
    92   46  114 1    
    93   47   48 2    
    94   47   49 am   BACKBONE|DICT|INTERRES
    95   49   50 1    
    96   49  115 1    
    97   50   51 1    
    98   50   52 1    
    99   50  116 1    
   100   51  117 1    
   101   51  118 1    
   102   51  119 1    
   103   52   53 2    
   104   52   54 am   BACKBONE|DICT|INTERRES
   105   54   55 1    
   106   54  120 1    
   107   55   56 1    
   108   55   57 1    
   109   55  121 1    
   110   56  122 1    
   111   56  123 1    
   112   56  124 1    
   113   57   58 2    
   114   57   59 am   BACKBONE|DICT|INTERRES
   115   59   60 1    
   116   59  125 1    
   117   60   61 1    
   118   60   62 1    
   119   60  126 1    
   120   61  127 1    
   121   61  128 1    
   122   61  129 1    
   123   62   63 2    
   124   62   64 am   BACKBONE|DICT|INTERRES
   125   64   65 1    
   126   64  130 1    
   127   65   66 1    
   128   65   69 1    
   129   65  131 1    
   130   66   67 am   BACKBONE|DICT|INTERRES
   131   66   68 2    
   132   67  132 1    
   133   67  133 1    
   134   69   70 1    
   135   69  134 1    
   136   69  135 1    
   137   70   71 1    
   138   71  136 1    
   139   71  137 1    
@<TRIPOS>SUBSTRUCTURE
     1 UNK         1 GROUP             0       ****    0 ROOT    
