@<TRIPOS>MOLECULE
3R136
137   139    1
SMALL
USER_CHARGES


@<TRIPOS>ATOM
      1 CA         26.2890   22.1078   -1.4675 C.3       0 UNK        -0.1979 
      2 C          27.6215   22.5950   -2.0155 C.2       0 UNK         0.4864 
      3 O          27.9153   22.3767   -3.1917 O.2       0 UNK        -0.5359 
      4 N          28.4281   23.2447   -1.1688 N.am      1 UNK        -0.4318 
      5 CA         29.7325   23.8096   -1.5216 C.3       1 UNK         0.0824 
      6 C6         30.6752   23.9078   -0.2990 C.3       12 UNK        -0.0944 
      7 S7         31.0801   22.2543    0.3489 S.3       12 UNK        -0.2672 
      8 C8         32.5865   22.6088    1.3123 C.3       12 UNK         0.0333 
      9 C9         32.3456   23.4542    2.5612 C.ar      12 UNK        -0.0807 
     10 C10        33.3069   24.3884    2.9543 C.ar      12 UNK        -0.0894 
     11 C11        33.1612   25.1288    4.1320 C.ar      12 UNK        -0.0804 
     12 C12        32.0072   24.9437    4.9103 C.ar      12 UNK        -0.0824 
     13 C13        31.0356   24.0074    4.5335 C.ar      12 UNK        -0.0762 
     14 C14        31.2173   23.2637    3.3646 C.ar      12 UNK        -0.0782 
     15 C15        29.8352   23.7212    5.4302 C.3       12 UNK         0.0230 
     16 S16        28.2336   23.8775    4.5663 S.3       12 UNK        -0.2608 
     17 C17        27.9110   25.6665    4.6923 C.3       12 UNK        -0.0989 
     18 CA         27.5853   26.3284    3.3276 C.3       5 UNK         0.0716 
     19 N          26.3712   25.7817    2.7187 N.am      5 UNK        -0.4135 
     20 C          26.3209   25.2181    1.5075 C.2       4 UNK         0.5031 
     21 O          27.3071   24.9910    0.8020 O.2       4 UNK        -0.5229 
     22 CA         24.9269   24.9194    0.9274 C.3       4 UNK         0.0329 
     23 CB         23.7981   24.7851    1.9763 C.3       4 UNK        -0.2001 
     24 N          24.6257   25.9279   -0.0944 N.am      4 UNK        -0.4303 
     25 C          24.5110   27.2491    0.1125 C.2       3 UNK         0.5044 
     26 O          24.3709   27.7614    1.2237 O.2       3 UNK        -0.5152 
     27 CA         24.7126   28.1350   -1.1316 C.3       3 UNK         0.0319 
     28 CB         24.5934   29.6436   -0.8296 C.3       3 UNK        -0.2001 
     29 N          25.9957   27.8397   -1.7887 N.am      3 UNK        -0.4354 
     30 C          27.2169   27.8700   -1.2288 C.2       2 UNK         0.4964 
     31 O          27.4525   28.2287   -0.0707 O.2       2 UNK        -0.5047 
     32 CA         28.3685   27.3639   -2.0997 C.3       2 UNK         0.0288 
     33 CB         29.5590   28.3454   -2.1152 C.3       2 UNK        -0.2113 
     34 N          28.7550   26.0561   -1.5782 N.am      2 UNK        -0.4145 
     35 C          29.5511   25.1770   -2.2010 C.2       1 UNK         0.5006 
     36 O          30.1044   25.3929   -3.2809 O.2       1 UNK        -0.5103 
     37 C          27.4922   27.8600    3.5020 C.2       5 UNK         0.5055 
     38 O          28.4461   28.4363    4.0204 O.2       5 UNK        -0.5220 
     39 N          26.3791   28.5133    3.1259 N.am      6 UNK        -0.4450 
     40 CA         26.1060   29.9131    3.4814 C.3       6 UNK         0.0367 
     41 CB         24.6471   30.2734    3.1609 C.3       6 UNK        -0.1929 
     42 C          27.0683   30.9294    2.8464 C.2       6 UNK         0.5070 
     43 O          27.3989   31.9211    3.4972 O.2       6 UNK        -0.5237 
     44 N          27.5181   30.6641    1.6132 N.am      7 UNK        -0.4739 
     45 CA         28.5487   31.4593    0.9403 C.3       7 UNK         0.0276 
     46 CB         28.1895   31.6188   -0.5448 C.3       7 UNK        -0.1927 
     47 C          29.9470   30.8447    1.1205 C.2       7 UNK         0.5013 
     48 O          30.9358   31.5718    1.0210 O.2       7 UNK        -0.5193 
     49 N          30.0159   29.5349    1.4059 N.am      8 UNK        -0.4253 
     50 CA         31.2605   28.8079    1.6813 C.3       8 UNK         0.0242 
     51 CB         31.0149   27.2929    1.5793 C.3       8 UNK        -0.2000 
     52 C          31.8737   29.1476    3.0523 C.2       8 UNK         0.4948 
     53 O          33.0737   28.9454    3.2204 O.2       8 UNK        -0.5275 
     54 N          31.0469   29.6526    3.9837 N.am      9 UNK        -0.4246 
     55 CA         31.3079   29.9453    5.4006 C.3       9 UNK         0.0261 
     56 CB         30.0872   30.6753    5.9876 C.3       9 UNK        -0.1959 
     57 C          32.5910   30.7237    5.7429 C.2       9 UNK         0.5033 
     58 O          33.0567   30.6262    6.8803 O.2       9 UNK        -0.5390 
     59 N          33.1748   31.4460    4.7785 N.am      10 UNK        -0.4215 
     60 CA         34.5236   32.0143    4.8568 C.3       10 UNK         0.0240 
     61 CB         34.6479   33.1456    3.8189 C.3       10 UNK        -0.1982 
     62 C          35.5942   30.9140    4.6762 C.2       10 UNK         0.4970 
     63 O          36.3985   30.9792    3.7446 O.2       10 UNK        -0.4916 
     64 N          35.5569   29.9064    5.5572 N.am      11 UNK        -0.4279 
     65 CA         36.3837   28.6918    5.5131 C.3       11 UNK         0.1003 
     66 C          37.8896   28.9105    5.8420 C.2       11 UNK         0.5709 
     67 N          38.2957   30.0493    6.3916 N.am      11 UNK        -0.7358 
     68 O          38.7067   28.0287    5.5874 O.2       11 UNK        -0.4999 
     69 C69        35.7882   27.5587    6.3950 C.3       12 UNK        -0.0954 
     70 S70        34.0620   27.1087    5.9942 S.3       12 UNK        -0.2268 
     71 C71        34.3204   26.0484    4.5305 C.3       12 UNK         0.0203 
     72 H72        26.0881   21.0940   -1.8128 H         1 UNK         0.0888 
     73 H73        26.2844   22.0948   -0.3778 H         1 UNK         0.0888 
     74 H74        25.4811   22.7521   -1.8125 H         1 UNK         0.0888 
     75 H75        28.0981   23.4726   -0.2365 H         1 UNK         0.3017 
     76 H76        30.2084   23.1522   -2.2532 H         1 UNK         0.0873 
     77 H77        31.6048   24.4119   -0.5709 H         1 UNK         0.0745 
     78 H78        30.2231   24.4956    0.5026 H         1 UNK         0.0745 
     79 H79        33.0283   21.6609    1.6216 H         1 UNK         0.0705 
     80 H80        33.3154   23.0880    0.6567 H         1 UNK         0.0705 
     81 H81        34.1984   24.5173    2.3550 H         1 UNK         0.1334 
     82 H82        31.8767   25.4918    5.8321 H         1 UNK         0.1417 
     83 H83        30.4810   22.5202    3.0919 H         1 UNK         0.1562 
     84 H84        29.8397   24.3593    6.3152 H         1 UNK         0.0748 
     85 H85        29.9243   22.6985    5.7992 H         1 UNK         0.0748 
     86 H86        28.7860   26.1396    5.1433 H         1 UNK         0.0940 
     87 H87        27.0922   25.8167    5.3984 H         1 UNK         0.0940 
     88 H88        28.4336   26.1544    2.6663 H         1 UNK         0.0703 
     89 H89        25.5070   25.9350    3.2172 H         1 UNK         0.3081 
     90 H90        25.0027   23.9628    0.4117 H         1 UNK         0.0719 
     91 H91        23.6142   25.7029    2.5340 H         1 UNK         0.0809 
     92 H92        22.8596   24.5041    1.4984 H         1 UNK         0.0809 
     93 H93        24.0327   24.0035    2.7002 H         1 UNK         0.0809 
     94 H94        24.7570   25.6223   -1.0481 H         1 UNK         0.2990 
     95 H95        23.9210   27.8725   -1.8350 H         1 UNK         0.0690 
     96 H96        24.6784   30.2364   -1.7401 H         1 UNK         0.0788 
     97 H97        25.3651   29.9835   -0.1401 H         1 UNK         0.0788 
     98 H98        23.6277   29.8767   -0.3794 H         1 UNK         0.0788 
     99 H99        25.9230   27.5205   -2.7451 H         1 UNK         0.2993 
    100 H100       28.0146   27.2358   -3.1249 H         1 UNK         0.0949 
    101 H101       29.9658   28.5093   -1.1195 H         1 UNK         0.0767 
    102 H102       30.3711   27.9868   -2.7468 H         1 UNK         0.0767 
    103 H103       29.2583   29.3141   -2.5137 H         1 UNK         0.0767 
    104 H104       28.3116   25.7866   -0.7019 H         1 UNK         0.3013 
    105 H105       25.6650   28.0427    2.5746 H         1 UNK         0.3121 
    106 H106       26.2308   29.9939    4.5636 H         1 UNK         0.0774 
    107 H107       24.4535   30.2647    2.0890 H         1 UNK         0.0815 
    108 H108       24.4060   31.2733    3.5237 H         1 UNK         0.0815 
    109 H109       23.9514   29.5799    3.6332 H         1 UNK         0.0815 
    110 H110       27.2190   29.8122    1.1462 H         1 UNK         0.2987 
    111 H111       28.5891   32.4623    1.3714 H         1 UNK         0.0949 
    112 H112       27.2546   32.1660   -0.6656 H         1 UNK         0.0806 
    113 H113       28.0751   30.6585   -1.0413 H         1 UNK         0.0806 
    114 H114       28.9621   32.1744   -1.0782 H         1 UNK         0.0806 
    115 H115       29.1537   29.0089    1.4475 H         1 UNK         0.3010 
    116 H116       31.9846   29.0870    0.9128 H         1 UNK         0.0829 
    117 H117       31.9621   26.7563    1.5125 H         1 UNK         0.0813 
    118 H118       30.4282   27.0279    0.7005 H         1 UNK         0.0813 
    119 H119       30.5035   26.9102    2.4615 H         1 UNK         0.0813 
    120 H120       30.0635   29.6596    3.7352 H         1 UNK         0.3038 
    121 H121       31.3952   28.9777    5.8983 H         1 UNK         0.0769 
    122 H122       29.8810   31.6049    5.4555 H         1 UNK         0.0811 
    123 H123       30.2431   30.9266    7.0379 H         1 UNK         0.0811 
    124 H124       29.1905   30.0581    5.9405 H         1 UNK         0.0811 
    125 H125       32.7537   31.4145    3.8609 H         1 UNK         0.3204 
    126 H126       34.6684   32.4521    5.8468 H         1 UNK         0.0748 
    127 H127       35.6322   33.6135    3.8664 H         1 UNK         0.0771 
    128 H128       34.5088   32.7777    2.8014 H         1 UNK         0.0771 
    129 H129       33.9101   33.9284    3.9960 H         1 UNK         0.0771 
    130 H130       34.8340   29.9300    6.2685 H         1 UNK         0.2980 
    131 H131       36.3613   28.3411    4.4798 H         1 UNK         0.0545 
    132 H132       39.2742   30.1788    6.5954 H         1 UNK         0.3459 
    133 H133       37.6336   30.7783    6.6025 H         1 UNK         0.3459 
    134 H134       35.8123   27.8563    7.4448 H         1 UNK         0.0616 
    135 H135       36.3990   26.6565    6.3289 H         1 UNK         0.0616 
    136 H136       35.1936   25.4194    4.7082 H         1 UNK         0.0634 
    137 H137       34.5697   26.6934    3.6868 H         1 UNK         0.0634 
@<TRIPOS>BOND
     1    1    2 1    
     2    1   72 1    
     3    1   73 1    
     4    1   74 1    
     5    2    3 2    
     6    2    4 am   BACKBONE|DICT|INTERRES
     7    4    5 1    
     8    4   75 1    
     9    5    6 1    
    10    5   35 1    
    11    5   76 1    
    12    6    7 1    
    13    6   77 1    
    14    6   78 1    
    15    7    8 1    
    16    8    9 1    
    17    8   79 1    
    18    8   80 1    
    19    9   10 ar   
    20    9   14 ar   
    21   10   11 ar   
    22   10   81 1    
    23   11   12 ar   
    24   11   71 1    
    25   12   13 ar   
    26   12   82 1    
    27   13   14 ar   
    28   13   15 1    
    29   14   83 1    
    30   15   16 1    
    31   15   84 1    
    32   15   85 1    
    33   16   17 1    
    34   17   18 1    
    35   17   86 1    
    36   17   87 1    
    37   18   19 1    
    38   18   37 1    
    39   18   88 1    
    40   19   20 am   BACKBONE|DICT|INTERRES
    41   19   89 1    
    42   20   21 2    
    43   20   22 1    
    44   22   23 1    
    45   22   24 1    
    46   22   90 1    
    47   23   91 1    
    48   23   92 1    
    49   23   93 1    
    50   24   25 am   BACKBONE|DICT|INTERRES
    51   24   94 1    
    52   25   26 2    
    53   25   27 1    
    54   27   28 1    
    55   27   29 1    
    56   27   95 1    
    57   28   96 1    
    58   28   97 1    
    59   28   98 1    
    60   29   30 am   BACKBONE|DICT|INTERRES
    61   29   99 1    
    62   30   31 2    
    63   30   32 1    
    64   32   33 1    
    65   32   34 1    
    66   32  100 1    
    67   33  101 1    
    68   33  102 1    
    69   33  103 1    
    70   34   35 am   BACKBONE|DICT|INTERRES
    71   34  104 1    
    72   35   36 2    
    73   37   38 2    
    74   37   39 am   BACKBONE|DICT|INTERRES
    75   39   40 1    
    76   39  105 1    
    77   40   41 1    
    78   40   42 1    
    79   40  106 1    
    80   41  107 1    
    81   41  108 1    
    82   41  109 1    
    83   42   43 2    
    84   42   44 am   BACKBONE|DICT|INTERRES
    85   44   45 1    
    86   44  110 1    
    87   45   46 1    
    88   45   47 1    
    89   45  111 1    
    90   46  112 1    
    91   46  113 1    
    92   46  114 1    
    93   47   48 2    
    94   47   49 am   BACKBONE|DICT|INTERRES
    95   49   50 1    
    96   49  115 1    
    97   50   51 1    
    98   50   52 1    
    99   50  116 1    
   100   51  117 1    
   101   51  118 1    
   102   51  119 1    
   103   52   53 2    
   104   52   54 am   BACKBONE|DICT|INTERRES
   105   54   55 1    
   106   54  120 1    
   107   55   56 1    
   108   55   57 1    
   109   55  121 1    
   110   56  122 1    
   111   56  123 1    
   112   56  124 1    
   113   57   58 2    
   114   57   59 am   BACKBONE|DICT|INTERRES
   115   59   60 1    
   116   59  125 1    
   117   60   61 1    
   118   60   62 1    
   119   60  126 1    
   120   61  127 1    
   121   61  128 1    
   122   61  129 1    
   123   62   63 2    
   124   62   64 am   BACKBONE|DICT|INTERRES
   125   64   65 1    
   126   64  130 1    
   127   65   66 1    
   128   65   69 1    
   129   65  131 1    
   130   66   67 am   BACKBONE|DICT|INTERRES
   131   66   68 2    
   132   67  132 1    
   133   67  133 1    
   134   69   70 1    
   135   69  134 1    
   136   69  135 1    
   137   70   71 1    
   138   71  136 1    
   139   71  137 1    
@<TRIPOS>SUBSTRUCTURE
     1 UNK         1 GROUP             0       ****    0 ROOT    
