@<TRIPOS>MOLECULE
3R136
137   139    1
SMALL
USER_CHARGES


@<TRIPOS>ATOM
      1 CA         29.1495   19.0919   -0.9181 C.3       0 UNK        -0.1979 
      2 C          29.0421   20.5086   -0.3748 C.2       0 UNK         0.4864 
      3 O          28.8046   20.6850    0.8215 O.2       0 UNK        -0.5359 
      4 N          29.2075   21.5150   -1.2461 N.am      1 UNK        -0.4318 
      5 CA         29.1792   22.9671   -0.9889 C.3       1 UNK         0.0824 
      6 C6         30.2208   23.4638    0.0498 C.3       12 UNK        -0.0944 
      7 S7         31.9247   22.9365   -0.3340 S.3       12 UNK        -0.2672 
      8 C8         32.2869   21.8357    1.0715 C.3       12 UNK         0.0333 
      9 C9         32.6893   22.6202    2.3117 C.ar      12 UNK        -0.0807 
     10 C10        34.0321   22.9439    2.5188 C.ar      12 UNK        -0.0894 
     11 C11        34.4290   23.6459    3.6601 C.ar      12 UNK        -0.0804 
     12 C12        33.4653   24.0299    4.5987 C.ar      12 UNK        -0.0824 
     13 C13        32.1139   23.7303    4.3931 C.ar      12 UNK        -0.0762 
     14 C14        31.7343   23.0106    3.2563 C.ar      12 UNK        -0.0782 
     15 C15        31.0705   24.1685    5.4112 C.3       12 UNK         0.0230 
     16 S16        30.7080   25.9500    5.2959 S.3       12 UNK        -0.2608 
     17 C17        29.4795   26.0303    3.9456 C.3       12 UNK        -0.0989 
     18 CA         29.4002   27.4280    3.2713 C.3       5 UNK         0.0716 
     19 N          28.7807   27.3318    1.9448 N.am      5 UNK        -0.4135 
     20 C          28.8633   28.2752    0.9943 C.2       4 UNK         0.5031 
     21 O          29.4952   29.3232    1.1191 O.2       4 UNK        -0.5229 
     22 CA         28.0501   28.0483   -0.2939 C.3       4 UNK         0.0329 
     23 CB         28.9095   27.3538   -1.3605 C.3       4 UNK        -0.2001 
     24 N          26.8032   27.3009   -0.0841 N.am      4 UNK        -0.4303 
     25 C          25.8028   27.7222    0.7070 C.2       3 UNK         0.5044 
     26 O          25.8427   28.7785    1.3343 O.2       3 UNK        -0.5152 
     27 CA         24.5701   26.8202    0.8835 C.3       3 UNK         0.0319 
     28 CB         23.4356   27.2832   -0.0433 C.3       3 UNK        -0.2001 
     29 N          24.8183   25.3945    0.6694 N.am      3 UNK        -0.4354 
     30 C          25.7024   24.6405    1.3368 C.2       2 UNK         0.4964 
     31 O          26.4493   25.0711    2.2190 O.2       2 UNK        -0.5047 
     32 CA         25.8094   23.1631    0.9161 C.3       2 UNK         0.0288 
     33 CB         24.7072   22.6941   -0.0621 C.3       2 UNK        -0.2113 
     34 N          27.1303   22.8626    0.3609 N.am      2 UNK        -0.4145 
     35 C          27.7733   23.4929   -0.6329 C.2       1 UNK         0.5006 
     36 O          27.3096   24.4502   -1.2565 O.2       1 UNK        -0.5103 
     37 C          28.7132   28.4920    4.1673 C.2       5 UNK         0.5055 
     38 O          29.3385   28.9851    5.1062 O.2       5 UNK        -0.5220 
     39 N          27.4512   28.8407    3.8724 N.am      6 UNK        -0.4450 
     40 CA         26.7041   29.8936    4.5627 C.3       6 UNK         0.0367 
     41 CB         25.2392   29.4546    4.7281 C.3       6 UNK        -0.1929 
     42 C          26.7845   31.2310    3.8090 C.2       6 UNK         0.5070 
     43 O          26.9133   32.2757    4.4476 O.2       6 UNK        -0.5237 
     44 N          26.6700   31.1828    2.4745 N.am      7 UNK        -0.4739 
     45 CA         26.6152   32.3512    1.5950 C.3       7 UNK         0.0276 
     46 CB         26.0908   31.9245    0.2143 C.3       7 UNK        -0.1927 
     47 C          27.9560   33.0882    1.4573 C.2       7 UNK         0.5013 
     48 O          27.9564   34.3203    1.4290 O.2       7 UNK        -0.5193 
     49 N          29.0612   32.3385    1.3614 N.am      8 UNK        -0.4253 
     50 CA         30.4183   32.8800    1.2830 C.3       8 UNK         0.0242 
     51 CB         31.2038   32.1085    0.2085 C.3       8 UNK        -0.2000 
     52 C          31.1107   32.7783    2.6496 C.2       8 UNK         0.4948 
     53 O          30.6384   32.0657    3.5384 O.2       8 UNK        -0.5275 
     54 N          32.2330   33.4946    2.7894 N.am      9 UNK        -0.4246 
     55 CA         33.1059   33.4373    3.9628 C.3       9 UNK         0.0261 
     56 CB         34.1047   34.6049    3.9053 C.3       9 UNK        -0.1959 
     57 C          33.8530   32.0951    4.0357 C.2       9 UNK         0.5033 
     58 O          34.1929   31.5299    2.9914 O.2       9 UNK        -0.5390 
     59 N          34.1193   31.6333    5.2659 N.am      10 UNK        -0.4215 
     60 CA         34.7979   30.3768    5.6038 C.3       10 UNK         0.0240 
     61 CB         36.3055   30.4649    5.2671 C.3       10 UNK        -0.1982 
     62 C          34.0783   29.1636    4.9816 C.2       10 UNK         0.4970 
     63 O          32.9778   28.8364    5.4229 O.2       10 UNK        -0.4916 
     64 N          34.7039   28.5360    3.9813 N.am      11 UNK        -0.4279 
     65 CA         34.1598   27.4114    3.2065 C.3       11 UNK         0.1003 
     66 C          33.1764   27.8319    2.0757 C.2       11 UNK         0.5709 
     67 N          32.9699   29.1148    1.8034 N.am      11 UNK        -0.7358 
     68 O          32.5726   26.9741    1.4379 O.2       11 UNK        -0.4999 
     69 C69        35.3058   26.5106    2.6744 C.3       12 UNK        -0.0954 
     70 S70        36.2403   25.7588    4.0538 S.3       12 UNK        -0.2268 
     71 C71        35.9035   23.9764    3.8647 C.3       12 UNK         0.0203 
     72 H72        28.2166   18.5545   -0.7505 H         1 UNK         0.0888 
     73 H73        29.3619   19.0789   -1.9870 H         1 UNK         0.0888 
     74 H74        29.9488   18.5557   -0.4072 H         1 UNK         0.0888 
     75 H75        29.3771   21.2762   -2.2134 H         1 UNK         0.3017 
     76 H76        29.4381   23.4279   -1.9439 H         1 UNK         0.0873 
     77 H77        30.2241   24.5538    0.0994 H         1 UNK         0.0745 
     78 H78        29.9455   23.1272    1.0478 H         1 UNK         0.0745 
     79 H79        33.0954   21.1617    0.7845 H         1 UNK         0.0705 
     80 H80        31.4294   21.1977    1.2856 H         1 UNK         0.0705 
     81 H81        34.7700   22.6448    1.7867 H         1 UNK         0.1334 
     82 H82        33.7652   24.5797    5.4806 H         1 UNK         0.1417 
     83 H83        30.6947   22.7536    3.1108 H         1 UNK         0.1562 
     84 H84        31.4408   23.9534    6.4146 H         1 UNK         0.0748 
     85 H85        30.1470   23.5978    5.3010 H         1 UNK         0.0748 
     86 H86        28.5032   25.7184    4.3223 H         1 UNK         0.0940 
     87 H87        29.7673   25.2855    3.2017 H         1 UNK         0.0940 
     88 H88        30.4220   27.7777    3.1129 H         1 UNK         0.0703 
     89 H89        28.1908   26.5258    1.7808 H         1 UNK         0.3081 
     90 H90        27.7748   29.0321   -0.6785 H         1 UNK         0.0719 
     91 H91        29.2366   26.3669   -1.0365 H         1 UNK         0.0809 
     92 H92        28.3643   27.2359   -2.2971 H         1 UNK         0.0809 
     93 H93        29.8058   27.9368   -1.5772 H         1 UNK         0.0809 
     94 H94        26.7213   26.4021   -0.5476 H         1 UNK         0.2990 
     95 H95        24.2356   26.9373    1.9163 H         1 UNK         0.0690 
     96 H96        23.6971   27.1583   -1.0950 H         1 UNK         0.0788 
     97 H97        23.2101   28.3394    0.1132 H         1 UNK         0.0788 
     98 H98        22.5166   26.7276    0.1441 H         1 UNK         0.0788 
     99 H99        24.2809   24.9491   -0.0603 H         1 UNK         0.2993 
    100 H100       25.7141   22.5793    1.8329 H         1 UNK         0.0949 
    101 H101       24.7633   23.2028   -1.0254 H         1 UNK         0.0767 
    102 H102       24.7927   21.6245   -0.2555 H         1 UNK         0.0767 
    103 H103       23.7114   22.8609    0.3511 H         1 UNK         0.0767 
    104 H104       27.6271   22.0812    0.7868 H         1 UNK         0.3013 
    105 H105       27.0086   28.4410    3.0543 H         1 UNK         0.3121 
    106 H106       27.1153   30.0509    5.5623 H         1 UNK         0.0774 
    107 H107       24.6641   30.2144    5.2589 H         1 UNK         0.0815 
    108 H108       24.7502   29.2896    3.7675 H         1 UNK         0.0815 
    109 H109       25.1655   28.5320    5.3039 H         1 UNK         0.0815 
    110 H110       26.4922   30.2812    2.0351 H         1 UNK         0.2987 
    111 H111       25.8987   33.0557    2.0234 H         1 UNK         0.0949 
    112 H112       26.7559   31.2057   -0.2648 H         1 UNK         0.0806 
    113 H113       25.1037   31.4676    0.2885 H         1 UNK         0.0806 
    114 H114       26.0020   32.7830   -0.4528 H         1 UNK         0.0806 
    115 H115       28.9922   31.3299    1.4534 H         1 UNK         0.3010 
    116 H116       30.3907   33.9330    0.9940 H         1 UNK         0.0829 
    117 H117       32.2042   32.5218    0.0755 H         1 UNK         0.0813 
    118 H118       31.3215   31.0585    0.4715 H         1 UNK         0.0813 
    119 H119       30.7031   32.1557   -0.7587 H         1 UNK         0.0813 
    120 H120       32.5757   34.0225    2.0000 H         1 UNK         0.3038 
    121 H121       32.4866   33.5488    4.8557 H         1 UNK         0.0769 
    122 H122       34.7525   34.6093    4.7829 H         1 UNK         0.0811 
    123 H123       33.5918   35.5665    3.8785 H         1 UNK         0.0811 
    124 H124       34.7486   34.5419    3.0269 H         1 UNK         0.0811 
    125 H125       33.7732   32.1615    6.0552 H         1 UNK         0.3204 
    126 H126       34.7118   30.2569    6.6850 H         1 UNK         0.0748 
    127 H127       36.8245   29.5440    5.5375 H         1 UNK         0.0771 
    128 H128       36.4874   30.6522    4.2083 H         1 UNK         0.0771 
    129 H129       36.7805   31.2718    5.8254 H         1 UNK         0.0771 
    130 H130       35.5923   28.8976    3.6696 H         1 UNK         0.2980 
    131 H131       33.5566   26.8045    3.8839 H         1 UNK         0.0545 
    132 H132       32.2953   29.3508    1.0948 H         1 UNK         0.3459 
    133 H133       33.4546   29.8505    2.3087 H         1 UNK         0.3459 
    134 H134       35.9971   27.0929    2.0632 H         1 UNK         0.0616 
    135 H135       34.9207   25.7258    2.0220 H         1 UNK         0.0616 
    136 H136       36.5010   23.6055    3.0304 H         1 UNK         0.0634 
    137 H137       36.2631   23.4559    4.7531 H         1 UNK         0.0634 
@<TRIPOS>BOND
     1    1    2 1    
     2    1   72 1    
     3    1   73 1    
     4    1   74 1    
     5    2    3 2    
     6    2    4 am   BACKBONE|DICT|INTERRES
     7    4    5 1    
     8    4   75 1    
     9    5    6 1    
    10    5   35 1    
    11    5   76 1    
    12    6    7 1    
    13    6   77 1    
    14    6   78 1    
    15    7    8 1    
    16    8    9 1    
    17    8   79 1    
    18    8   80 1    
    19    9   10 ar   
    20    9   14 ar   
    21   10   11 ar   
    22   10   81 1    
    23   11   12 ar   
    24   11   71 1    
    25   12   13 ar   
    26   12   82 1    
    27   13   14 ar   
    28   13   15 1    
    29   14   83 1    
    30   15   16 1    
    31   15   84 1    
    32   15   85 1    
    33   16   17 1    
    34   17   18 1    
    35   17   86 1    
    36   17   87 1    
    37   18   19 1    
    38   18   37 1    
    39   18   88 1    
    40   19   20 am   BACKBONE|DICT|INTERRES
    41   19   89 1    
    42   20   21 2    
    43   20   22 1    
    44   22   23 1    
    45   22   24 1    
    46   22   90 1    
    47   23   91 1    
    48   23   92 1    
    49   23   93 1    
    50   24   25 am   BACKBONE|DICT|INTERRES
    51   24   94 1    
    52   25   26 2    
    53   25   27 1    
    54   27   28 1    
    55   27   29 1    
    56   27   95 1    
    57   28   96 1    
    58   28   97 1    
    59   28   98 1    
    60   29   30 am   BACKBONE|DICT|INTERRES
    61   29   99 1    
    62   30   31 2    
    63   30   32 1    
    64   32   33 1    
    65   32   34 1    
    66   32  100 1    
    67   33  101 1    
    68   33  102 1    
    69   33  103 1    
    70   34   35 am   BACKBONE|DICT|INTERRES
    71   34  104 1    
    72   35   36 2    
    73   37   38 2    
    74   37   39 am   BACKBONE|DICT|INTERRES
    75   39   40 1    
    76   39  105 1    
    77   40   41 1    
    78   40   42 1    
    79   40  106 1    
    80   41  107 1    
    81   41  108 1    
    82   41  109 1    
    83   42   43 2    
    84   42   44 am   BACKBONE|DICT|INTERRES
    85   44   45 1    
    86   44  110 1    
    87   45   46 1    
    88   45   47 1    
    89   45  111 1    
    90   46  112 1    
    91   46  113 1    
    92   46  114 1    
    93   47   48 2    
    94   47   49 am   BACKBONE|DICT|INTERRES
    95   49   50 1    
    96   49  115 1    
    97   50   51 1    
    98   50   52 1    
    99   50  116 1    
   100   51  117 1    
   101   51  118 1    
   102   51  119 1    
   103   52   53 2    
   104   52   54 am   BACKBONE|DICT|INTERRES
   105   54   55 1    
   106   54  120 1    
   107   55   56 1    
   108   55   57 1    
   109   55  121 1    
   110   56  122 1    
   111   56  123 1    
   112   56  124 1    
   113   57   58 2    
   114   57   59 am   BACKBONE|DICT|INTERRES
   115   59   60 1    
   116   59  125 1    
   117   60   61 1    
   118   60   62 1    
   119   60  126 1    
   120   61  127 1    
   121   61  128 1    
   122   61  129 1    
   123   62   63 2    
   124   62   64 am   BACKBONE|DICT|INTERRES
   125   64   65 1    
   126   64  130 1    
   127   65   66 1    
   128   65   69 1    
   129   65  131 1    
   130   66   67 am   BACKBONE|DICT|INTERRES
   131   66   68 2    
   132   67  132 1    
   133   67  133 1    
   134   69   70 1    
   135   69  134 1    
   136   69  135 1    
   137   70   71 1    
   138   71  136 1    
   139   71  137 1    
@<TRIPOS>SUBSTRUCTURE
     1 UNK         1 GROUP             0       ****    0 ROOT    
