@<TRIPOS>MOLECULE
3R136
137   139    1
SMALL
USER_CHARGES


@<TRIPOS>ATOM
      1 CA         33.6990   25.4872   -2.3052 C.3       0 UNK        -0.1979 
      2 C          32.6315   26.4347   -1.7798 C.2       0 UNK         0.4864 
      3 O          32.5199   27.5604   -2.2633 O.2       0 UNK        -0.5359 
      4 N          31.8441   25.9899   -0.7909 N.am      1 UNK        -0.4318 
      5 CA         30.7823   26.7713   -0.1432 C.3       1 UNK         0.0824 
      6 C6         30.5206   26.2797    1.2984 C.3       12 UNK        -0.0944 
      7 S7         29.9332   24.5528    1.4082 S.3       12 UNK        -0.2672 
      8 C8         30.6549   24.0420    3.0007 C.3       12 UNK         0.0333 
      9 C9         30.2356   24.9716    4.1307 C.ar      12 UNK        -0.0807 
     10 C10        31.1605   25.8490    4.7030 C.ar      12 UNK        -0.0894 
     11 C11        30.7770   26.7189    5.7265 C.ar      12 UNK        -0.0804 
     12 C12        29.4513   26.7144    6.1715 C.ar      12 UNK        -0.0824 
     13 C13        28.5171   25.8350    5.6133 C.ar      12 UNK        -0.0762 
     14 C14        28.9200   24.9594    4.5991 C.ar      12 UNK        -0.0782 
     15 C15        27.0887   25.8024    6.1434 C.3       12 UNK         0.0230 
     16 S16        25.8309   25.8111    4.8245 S.3       12 UNK        -0.2608 
     17 C17        25.9769   27.5046    4.1546 C.3       12 UNK        -0.0989 
     18 CA         26.4339   27.5614    2.6653 C.3       5 UNK         0.0716 
     19 N          25.7019   26.6460    1.7759 N.am      5 UNK        -0.4135 
     20 C          24.3782   26.6263    1.5514 C.2       4 UNK         0.5031 
     21 O          23.5806   27.3864    2.1026 O.2       4 UNK        -0.5229 
     22 CA         23.8435   25.6208    0.5113 C.3       4 UNK         0.0329 
     23 CB         22.9539   26.3268   -0.5280 C.3       4 UNK        -0.2001 
     24 N          24.8948   24.8946   -0.2047 N.am      4 UNK        -0.4303 
     25 C          25.5717   23.8321    0.2414 C.2       3 UNK         0.5044 
     26 O          25.3877   23.3248    1.3471 O.2       3 UNK        -0.5152 
     27 CA         26.6538   23.2466   -0.6856 C.3       3 UNK         0.0319 
     28 CB         26.0440   22.2158   -1.6551 C.3       3 UNK        -0.2001 
     29 N          27.4759   24.2347   -1.4064 N.am      3 UNK        -0.4354 
     30 C          27.1214   25.1181   -2.3555 C.2       2 UNK         0.4964 
     31 O          25.9631   25.2758   -2.7438 O.2       2 UNK        -0.5047 
     32 CA         28.2522   25.9609   -2.9788 C.3       2 UNK         0.0288 
     33 CB         27.7609   27.3118   -3.5426 C.3       2 UNK        -0.2113 
     34 N          29.4040   26.1350   -2.0852 N.am      2 UNK        -0.4145 
     35 C          29.4719   26.8609   -0.9581 C.2       1 UNK         0.5006 
     36 O          28.5577   27.5734   -0.5331 O.2       1 UNK        -0.5103 
     37 C          26.4261   29.0112    2.1205 C.2       5 UNK         0.5055 
     38 O          26.5547   29.9565    2.8998 O.2       5 UNK        -0.5220 
     39 N          26.2449   29.1693    0.8003 N.am      6 UNK        -0.4450 
     40 CA         26.0490   30.4575    0.1365 C.3       6 UNK         0.0367 
     41 CB         25.3769   30.2401   -1.2287 C.3       6 UNK        -0.1929 
     42 C          27.3556   31.2460   -0.0127 C.2       6 UNK         0.5070 
     43 O          27.3661   32.4477    0.2559 O.2       6 UNK        -0.5237 
     44 N          28.4308   30.5618   -0.4278 N.am      7 UNK        -0.4739 
     45 CA         29.7661   31.1577   -0.5407 C.3       7 UNK         0.0276 
     46 CB         30.5266   30.5188   -1.7132 C.3       7 UNK        -0.1927 
     47 C          30.5587   31.0524    0.7732 C.2       7 UNK         0.5013 
     48 O          31.4282   31.8913    1.0079 O.2       7 UNK        -0.5193 
     49 N          30.2281   30.0451    1.6009 N.am      8 UNK        -0.4253 
     50 CA         30.7431   29.7857    2.9552 C.3       8 UNK         0.0242 
     51 CB         30.1039   30.7712    3.9551 C.3       8 UNK        -0.2000 
     52 C          32.2839   29.7595    3.0501 C.2       8 UNK         0.4948 
     53 O          32.8583   30.3951    3.9360 O.2       8 UNK        -0.5275 
     54 N          32.9241   29.0390    2.1182 N.am      9 UNK        -0.4246 
     55 CA         34.3749   28.8460    2.0567 C.3       9 UNK         0.0261 
     56 CB         34.7282   28.1204    0.7486 C.3       9 UNK        -0.1959 
     57 C          34.8989   28.0525    3.2659 C.2       9 UNK         0.5033 
     58 O          34.2198   27.1316    3.7219 O.2       9 UNK        -0.5390 
     59 N          36.1044   28.4062    3.7311 N.am      10 UNK        -0.4215 
     60 CA         36.7517   27.9110    4.9521 C.3       10 UNK         0.0240 
     61 CB         37.0231   26.3885    4.8849 C.3       10 UNK        -0.1982 
     62 C          35.9927   28.3816    6.2106 C.2       10 UNK         0.4970 
     63 O          35.6390   29.5603    6.2776 O.2       10 UNK        -0.4916 
     64 N          35.8032   27.4895    7.1930 N.am      11 UNK        -0.4279 
     65 CA         35.1883   27.7616    8.5080 C.3       11 UNK         0.1003 
     66 C          36.0022   28.7369    9.4165 C.2       11 UNK         0.5709 
     67 N          37.2909   28.9461    9.1723 N.am      11 UNK        -0.7358 
     68 O          35.4747   29.2875   10.3806 O.2       11 UNK        -0.4999 
     69 C69        33.6781   28.1354    8.4178 C.3       12 UNK        -0.0954 
     70 S70        32.6647   26.7895    7.7216 S.3       12 UNK        -0.2268 
     71 C71        31.8014   27.6422    6.3682 C.3       12 UNK         0.0203 
     72 H72        33.5529   25.3102   -3.3704 H         1 UNK         0.0888 
     73 H73        34.6874   25.9239   -2.1646 H         1 UNK         0.0888 
     74 H74        33.6779   24.5247   -1.7945 H         1 UNK         0.0888 
     75 H75        31.9731   25.0542   -0.4296 H         1 UNK         0.3017 
     76 H76        31.1431   27.7968   -0.0625 H         1 UNK         0.0873 
     77 H77        31.4430   26.3744    1.8736 H         1 UNK         0.0745 
     78 H78        29.7930   26.9174    1.8024 H         1 UNK         0.0745 
     79 H79        30.3346   23.0242    3.2276 H         1 UNK         0.0705 
     80 H80        31.7416   24.0096    2.9072 H         1 UNK         0.0705 
     81 H81        32.1844   25.8489    4.3584 H         1 UNK         0.1334 
     82 H82        29.1547   27.3810    6.9699 H         1 UNK         0.1417 
     83 H83        28.2060   24.2737    4.1630 H         1 UNK         0.1562 
     84 H84        26.9000   26.6393    6.8177 H         1 UNK         0.0748 
     85 H85        26.9625   24.8962    6.7370 H         1 UNK         0.0748 
     86 H86        26.6678   28.0756    4.7777 H         1 UNK         0.0940 
     87 H87        25.0057   27.9881    4.2749 H         1 UNK         0.0940 
     88 H88        27.4744   27.2357    2.6323 H         1 UNK         0.0703 
     89 H89        26.2669   25.9688    1.2857 H         1 UNK         0.3081 
     90 H90        23.2292   24.8984    1.0526 H         1 UNK         0.0719 
     91 H91        22.1118   26.8307   -0.0517 H         1 UNK         0.0809 
     92 H92        23.5102   27.0788   -1.0893 H         1 UNK         0.0809 
     93 H93        22.5383   25.6157   -1.2423 H         1 UNK         0.0809 
     94 H94        25.1189   25.2140   -1.1457 H         1 UNK         0.2990 
     95 H95        27.3507   22.7105   -0.0388 H         1 UNK         0.0690 
     96 H96        26.8150   21.7291   -2.2523 H         1 UNK         0.0788 
     97 H97        25.3276   22.6717   -2.3393 H         1 UNK         0.0788 
     98 H98        25.5157   21.4331   -1.1088 H         1 UNK         0.0788 
     99 H99        28.4508   24.2295   -1.1406 H         1 UNK         0.2993 
    100 H100       28.6174   25.3751   -3.8239 H         1 UNK         0.0949 
    101 H101       27.2773   27.9175   -2.7780 H         1 UNK         0.0767 
    102 H102       28.5840   27.8918   -3.9603 H         1 UNK         0.0767 
    103 H103       27.0335   27.1607   -4.3411 H         1 UNK         0.0767 
    104 H104       30.2288   25.6081   -2.3360 H         1 UNK         0.3013 
    105 H105       26.2185   28.3447    0.2182 H         1 UNK         0.3121 
    106 H106       25.3703   31.0551    0.7497 H         1 UNK         0.0774 
    107 H107       25.9977   29.6466   -1.8989 H         1 UNK         0.0815 
    108 H108       24.4170   29.7343   -1.1225 H         1 UNK         0.0815 
    109 H109       25.1862   31.1936   -1.7232 H         1 UNK         0.0815 
    110 H110       28.3395   29.5686   -0.6205 H         1 UNK         0.2987 
    111 H111       29.6696   32.2227   -0.7654 H         1 UNK         0.0949 
    112 H112       30.0167   30.7030   -2.6588 H         1 UNK         0.0806 
    113 H113       31.5309   30.9355   -1.8019 H         1 UNK         0.0806 
    114 H114       30.6322   29.4429   -1.6012 H         1 UNK         0.0806 
    115 H115       29.4763   29.4446    1.2955 H         1 UNK         0.3010 
    116 H116       30.4092   28.7850    3.2334 H         1 UNK         0.0829 
    117 H117       30.4089   31.7993    3.7564 H         1 UNK         0.0813 
    118 H118       29.0156   30.7307    3.9124 H         1 UNK         0.0813 
    119 H119       30.3947   30.5350    4.9796 H         1 UNK         0.0813 
    120 H120       32.3789   28.5507    1.4281 H         1 UNK         0.3038 
    121 H121       34.8409   29.8337    2.0492 H         1 UNK         0.0769 
    122 H122       34.3682   28.6677   -0.1231 H         1 UNK         0.0811 
    123 H123       34.3007   27.1174    0.7194 H         1 UNK         0.0811 
    124 H124       35.8084   28.0147    0.6400 H         1 UNK         0.0811 
    125 H125       36.5698   29.1866    3.2884 H         1 UNK         0.3204 
    126 H126       37.7227   28.4068    4.9933 H         1 UNK         0.0748 
    127 H127       36.1064   25.7999    4.9367 H         1 UNK         0.0771 
    128 H128       37.5304   26.1235    3.9572 H         1 UNK         0.0771 
    129 H129       37.6707   26.0658    5.7010 H         1 UNK         0.0771 
    130 H130       36.1302   26.5452    7.0524 H         1 UNK         0.2980 
    131 H131       35.2430   26.8132    9.0434 H         1 UNK         0.0545 
    132 H132       37.8105   29.5678    9.7717 H         1 UNK         0.3459 
    133 H133       37.7482   28.4898    8.3999 H         1 UNK         0.3459 
    134 H134       33.5390   29.0502    7.8402 H         1 UNK         0.0616 
    135 H135       33.2708   28.3424    9.4087 H         1 UNK         0.0616 
    136 H136       32.5296   27.9777    5.6290 H         1 UNK         0.0634 
    137 H137       31.3125   28.5385    6.7529 H         1 UNK         0.0634 
@<TRIPOS>BOND
     1    1    2 1    
     2    1   72 1    
     3    1   73 1    
     4    1   74 1    
     5    2    3 2    
     6    2    4 am   BACKBONE|DICT|INTERRES
     7    4    5 1    
     8    4   75 1    
     9    5    6 1    
    10    5   35 1    
    11    5   76 1    
    12    6    7 1    
    13    6   77 1    
    14    6   78 1    
    15    7    8 1    
    16    8    9 1    
    17    8   79 1    
    18    8   80 1    
    19    9   10 ar   
    20    9   14 ar   
    21   10   11 ar   
    22   10   81 1    
    23   11   12 ar   
    24   11   71 1    
    25   12   13 ar   
    26   12   82 1    
    27   13   14 ar   
    28   13   15 1    
    29   14   83 1    
    30   15   16 1    
    31   15   84 1    
    32   15   85 1    
    33   16   17 1    
    34   17   18 1    
    35   17   86 1    
    36   17   87 1    
    37   18   19 1    
    38   18   37 1    
    39   18   88 1    
    40   19   20 am   BACKBONE|DICT|INTERRES
    41   19   89 1    
    42   20   21 2    
    43   20   22 1    
    44   22   23 1    
    45   22   24 1    
    46   22   90 1    
    47   23   91 1    
    48   23   92 1    
    49   23   93 1    
    50   24   25 am   BACKBONE|DICT|INTERRES
    51   24   94 1    
    52   25   26 2    
    53   25   27 1    
    54   27   28 1    
    55   27   29 1    
    56   27   95 1    
    57   28   96 1    
    58   28   97 1    
    59   28   98 1    
    60   29   30 am   BACKBONE|DICT|INTERRES
    61   29   99 1    
    62   30   31 2    
    63   30   32 1    
    64   32   33 1    
    65   32   34 1    
    66   32  100 1    
    67   33  101 1    
    68   33  102 1    
    69   33  103 1    
    70   34   35 am   BACKBONE|DICT|INTERRES
    71   34  104 1    
    72   35   36 2    
    73   37   38 2    
    74   37   39 am   BACKBONE|DICT|INTERRES
    75   39   40 1    
    76   39  105 1    
    77   40   41 1    
    78   40   42 1    
    79   40  106 1    
    80   41  107 1    
    81   41  108 1    
    82   41  109 1    
    83   42   43 2    
    84   42   44 am   BACKBONE|DICT|INTERRES
    85   44   45 1    
    86   44  110 1    
    87   45   46 1    
    88   45   47 1    
    89   45  111 1    
    90   46  112 1    
    91   46  113 1    
    92   46  114 1    
    93   47   48 2    
    94   47   49 am   BACKBONE|DICT|INTERRES
    95   49   50 1    
    96   49  115 1    
    97   50   51 1    
    98   50   52 1    
    99   50  116 1    
   100   51  117 1    
   101   51  118 1    
   102   51  119 1    
   103   52   53 2    
   104   52   54 am   BACKBONE|DICT|INTERRES
   105   54   55 1    
   106   54  120 1    
   107   55   56 1    
   108   55   57 1    
   109   55  121 1    
   110   56  122 1    
   111   56  123 1    
   112   56  124 1    
   113   57   58 2    
   114   57   59 am   BACKBONE|DICT|INTERRES
   115   59   60 1    
   116   59  125 1    
   117   60   61 1    
   118   60   62 1    
   119   60  126 1    
   120   61  127 1    
   121   61  128 1    
   122   61  129 1    
   123   62   63 2    
   124   62   64 am   BACKBONE|DICT|INTERRES
   125   64   65 1    
   126   64  130 1    
   127   65   66 1    
   128   65   69 1    
   129   65  131 1    
   130   66   67 am   BACKBONE|DICT|INTERRES
   131   66   68 2    
   132   67  132 1    
   133   67  133 1    
   134   69   70 1    
   135   69  134 1    
   136   69  135 1    
   137   70   71 1    
   138   71  136 1    
   139   71  137 1    
@<TRIPOS>SUBSTRUCTURE
     1 UNK         1 GROUP             0       ****    0 ROOT    
