@<TRIPOS>MOLECULE
3R136
137   139    1
SMALL
USER_CHARGES


@<TRIPOS>ATOM
      1 CA         31.0564   20.2506   -2.0214 C.3       0 UNK        -0.1979 
      2 C          31.0755   21.7531   -1.7821 C.2       0 UNK         0.4864 
      3 O          31.8915   22.4570   -2.3783 O.2       0 UNK        -0.5359 
      4 N          30.1809   22.2491   -0.9160 N.am      1 UNK        -0.4318 
      5 CA         30.0734   23.6661   -0.5344 C.3       1 UNK         0.0824 
      6 C6         29.2943   23.8634    0.7940 C.3       12 UNK        -0.0944 
      7 S7         29.8070   22.7257    2.1264 S.3       12 UNK        -0.2672 
      8 C8         31.0594   23.7067    3.0188 C.3       12 UNK         0.0333 
      9 C9         30.5078   24.5951    4.1338 C.ar      12 UNK        -0.0807 
     10 C10        31.1469   25.8072    4.4118 C.ar      12 UNK        -0.0894 
     11 C11        30.7380   26.6043    5.4842 C.ar      12 UNK        -0.0804 
     12 C12        29.6597   26.1954    6.2736 C.ar      12 UNK        -0.0824 
     13 C13        29.0063   24.9872    6.0101 C.ar      12 UNK        -0.0762 
     14 C14        29.4383   24.1898    4.9441 C.ar      12 UNK        -0.0782 
     15 C15        27.8520   24.5308    6.8942 C.3       12 UNK         0.0230 
     16 S16        26.2416   24.6323    6.0464 S.3       12 UNK        -0.2608 
     17 C17        26.0647   26.4304    5.7787 C.3       12 UNK        -0.0989 
     18 CA         26.5719   26.8595    4.3799 C.3       5 UNK         0.0716 
     19 N          25.9041   26.1291    3.2938 N.am      5 UNK        -0.4135 
     20 C          26.3823   26.0259    2.0489 C.2       4 UNK         0.5031 
     21 O          27.4123   26.5946    1.6814 O.2       4 UNK        -0.5229 
     22 CA         25.5835   25.1733    1.0419 C.3       4 UNK         0.0329 
     23 CB         24.0813   25.0349    1.3819 C.3       4 UNK        -0.2001 
     24 N          25.7821   25.6690   -0.3254 N.am      4 UNK        -0.4303 
     25 C          25.4286   26.8724   -0.8041 C.2       3 UNK         0.5044 
     26 O          24.7175   27.6678   -0.1888 O.2       3 UNK        -0.5152 
     27 CA         25.9870   27.2788   -2.1820 C.3       3 UNK         0.0319 
     28 CB         26.5515   28.7111   -2.1479 C.3       3 UNK        -0.2001 
     29 N          27.0384   26.3689   -2.6500 N.am      3 UNK        -0.4354 
     30 C          26.8541   25.3304   -3.4727 C.2       2 UNK         0.4964 
     31 O          25.7631   25.0238   -3.9534 O.2       2 UNK        -0.5047 
     32 CA         28.0855   24.4668   -3.7952 C.3       2 UNK         0.0288 
     33 CB         29.0718   25.2083   -4.7204 C.3       2 UNK        -0.2113 
     34 N          28.7575   23.9100   -2.6107 N.am      2 UNK        -0.4145 
     35 C          29.4595   24.5407   -1.6535 C.2       1 UNK         0.5006 
     36 O          29.6191   25.7610   -1.6195 O.2       1 UNK        -0.5103 
     37 C          26.5691   28.3963    4.2081 C.2       5 UNK         0.5055 
     38 O          27.1888   29.0884    5.0170 O.2       5 UNK        -0.5220 
     39 N          25.9231   28.9109    3.1495 N.am      6 UNK        -0.4450 
     40 CA         26.0469   30.2975    2.6961 C.3       6 UNK         0.0367 
     41 CB         24.9141   30.6210    1.7098 C.3       6 UNK        -0.1929 
     42 C          27.4192   30.6005    2.0619 C.2       6 UNK         0.5070 
     43 O          27.7689   31.7756    1.9431 O.2       6 UNK        -0.5237 
     44 N          28.1953   29.5665    1.6951 N.am      7 UNK        -0.4739 
     45 CA         29.5724   29.6580    1.1938 C.3       7 UNK         0.0276 
     46 CB         29.9397   28.3317    0.5032 C.3       7 UNK        -0.1927 
     47 C          30.5857   30.0266    2.2992 C.2       7 UNK         0.5013 
     48 O          31.5895   29.3341    2.4750 O.2       7 UNK        -0.5193 
     49 N          30.3171   31.1232    3.0210 N.am      8 UNK        -0.4253 
     50 CA         31.0704   31.6138    4.1803 C.3       8 UNK         0.0242 
     51 CB         30.3944   32.8819    4.7235 C.3       8 UNK        -0.2000 
     52 C          32.5635   31.8690    3.9163 C.2       8 UNK         0.4948 
     53 O          33.3634   31.7393    4.8413 O.2       8 UNK        -0.5275 
     54 N          32.9221   32.1680    2.6593 N.am      9 UNK        -0.4246 
     55 CA         34.3009   32.3034    2.1828 C.3       9 UNK         0.0261 
     56 CB         34.2888   32.7374    0.7084 C.3       9 UNK        -0.1959 
     57 C          35.1500   31.0301    2.3616 C.2       9 UNK         0.5033 
     58 O          36.3565   31.1464    2.5803 O.2       9 UNK        -0.5390 
     59 N          34.5189   29.8457    2.3127 N.am      10 UNK        -0.4215 
     60 CA         35.1721   28.5594    2.5778 C.3       10 UNK         0.0240 
     61 CB         34.3098   27.4207    2.0097 C.3       10 UNK        -0.1982 
     62 C          35.4702   28.3294    4.0722 C.2       10 UNK         0.4970 
     63 O          36.3183   27.4941    4.3875 O.2       10 UNK        -0.4916 
     64 N          34.7908   29.0739    4.9535 N.am      11 UNK        -0.4279 
     65 CA         35.0153   29.0997    6.4050 C.3       11 UNK         0.1003 
     66 C          35.9637   30.2519    6.8529 C.2       11 UNK         0.5709 
     67 N          36.5429   31.0392    5.9522 N.am      11 UNK        -0.7358 
     68 O          36.2064   30.4199    8.0458 O.2       11 UNK        -0.4999 
     69 C69        33.6663   29.1125    7.1752 C.3       12 UNK        -0.0954 
     70 S70        32.7979   27.5158    7.0419 S.3       12 UNK        -0.2268 
     71 C71        31.4988   27.8769    5.8221 C.3       12 UNK         0.0203 
     72 H72        32.0207   19.8171   -1.7578 H         1 UNK         0.0888 
     73 H73        30.2884   19.7528   -1.4295 H         1 UNK         0.0888 
     74 H74        30.8639   20.0402   -3.0731 H         1 UNK         0.0888 
     75 H75        29.5597   21.6198   -0.4265 H         1 UNK         0.3017 
     76 H76        31.0882   24.0375   -0.3750 H         1 UNK         0.0873 
     77 H77        28.2294   23.6985    0.6318 H         1 UNK         0.0745 
     78 H78        29.3935   24.8920    1.1464 H         1 UNK         0.0745 
     79 H79        31.7732   23.0147    3.4672 H         1 UNK         0.0705 
     80 H80        31.6235   24.2995    2.2966 H         1 UNK         0.0705 
     81 H81        31.9937   26.1154    3.8162 H         1 UNK         0.1334 
     82 H82        29.3457   26.8092    7.1069 H         1 UNK         0.1417 
     83 H83        28.9447   23.2460    4.7579 H         1 UNK         0.1562 
     84 H84        27.8112   25.1143    7.8154 H         1 UNK         0.0748 
     85 H85        28.0229   23.4972    7.1987 H         1 UNK         0.0748 
     86 H86        26.6024   26.9588    6.5686 H         1 UNK         0.0940 
     87 H87        25.0131   26.6959    5.9007 H         1 UNK         0.0940 
     88 H88        27.6267   26.5879    4.3210 H         1 UNK         0.0703 
     89 H89        25.0577   25.6370    3.5395 H         1 UNK         0.3081 
     90 H90        26.0159   24.1734    1.0734 H         1 UNK         0.0719 
     91 H91        23.5481   24.5080    0.5904 H         1 UNK         0.0809 
     92 H92        23.5967   26.0025    1.5167 H         1 UNK         0.0809 
     93 H93        23.9320   24.4603    2.2966 H         1 UNK         0.0809 
     94 H94        26.3839   25.1096   -0.9102 H         1 UNK         0.2990 
     95 H95        25.1497   27.2660   -2.8825 H         1 UNK         0.0690 
     96 H96        26.9694   28.9973   -3.1132 H         1 UNK         0.0788 
     97 H97        27.3331   28.8201   -1.3965 H         1 UNK         0.0788 
     98 H98        25.7709   29.4345   -1.9085 H         1 UNK         0.0788 
     99 H99        27.9714   26.4998   -2.2653 H         1 UNK         0.2993 
    100 H100       27.7166   23.6032   -4.3516 H         1 UNK         0.0949 
    101 H101       29.9035   24.5643   -5.0068 H         1 UNK         0.0767 
    102 H102       28.5771   25.5267   -5.6390 H         1 UNK         0.0767 
    103 H103       29.4873   26.1010   -4.2522 H         1 UNK         0.0767 
    104 H104       28.6781   22.9071   -2.5154 H         1 UNK         0.3013 
    105 H105       25.4488   28.2755    2.5231 H         1 UNK         0.3121 
    106 H106       25.9371   30.9503    3.5648 H         1 UNK         0.0774 
    107 H107       24.9248   31.6783    1.4418 H         1 UNK         0.0815 
    108 H108       25.0105   30.0545    0.7839 H         1 UNK         0.0815 
    109 H109       23.9352   30.4058    2.1383 H         1 UNK         0.0815 
    110 H110       27.8399   28.6238    1.8222 H         1 UNK         0.2987 
    111 H111       29.6125   30.4496    0.4427 H         1 UNK         0.0949 
    112 H112       29.9614   27.5019    1.2111 H         1 UNK         0.0806 
    113 H113       29.2285   28.0768   -0.2805 H         1 UNK         0.0806 
    114 H114       30.9247   28.3874    0.0382 H         1 UNK         0.0806 
    115 H115       29.4626   31.6213    2.7838 H         1 UNK         0.3010 
    116 H116       31.0111   30.8410    4.9487 H         1 UNK         0.0829 
    117 H117       29.3634   32.6858    5.0192 H         1 UNK         0.0813 
    118 H118       30.9169   33.2570    5.6049 H         1 UNK         0.0813 
    119 H119       30.3851   33.6828    3.9831 H         1 UNK         0.0813 
    120 H120       32.1909   32.2542    1.9686 H         1 UNK         0.3038 
    121 H121       34.7731   33.0939    2.7699 H         1 UNK         0.0769 
    122 H122       35.3046   32.8704    0.3331 H         1 UNK         0.0811 
    123 H123       33.7710   33.6878    0.5775 H         1 UNK         0.0811 
    124 H124       33.8013   31.9970    0.0727 H         1 UNK         0.0811 
    125 H125       33.5104   29.8204    2.1840 H         1 UNK         0.3204 
    126 H126       36.1296   28.5475    2.0526 H         1 UNK         0.0748 
    127 H127       34.7868   26.4520    2.1649 H         1 UNK         0.0771 
    128 H128       33.3313   27.3825    2.4857 H         1 UNK         0.0771 
    129 H129       34.1542   27.5379    0.9372 H         1 UNK         0.0771 
    130 H130       34.1566   29.7852    4.6122 H         1 UNK         0.2980 
    131 H131       35.5421   28.1891    6.6955 H         1 UNK         0.0545 
    132 H132       36.3654   30.9182    4.9662 H         1 UNK         0.3459 
    133 H133       37.1588   31.7720    6.2661 H         1 UNK         0.3459 
    134 H134       33.0218   29.9225    6.8305 H         1 UNK         0.0616 
    135 H135       33.8277   29.2874    8.2403 H         1 UNK         0.0616 
    136 H136       30.8187   28.6318    6.2194 H         1 UNK         0.0634 
    137 H137       31.9502   28.2990    4.9236 H         1 UNK         0.0634 
@<TRIPOS>BOND
     1    1    2 1    
     2    1   72 1    
     3    1   73 1    
     4    1   74 1    
     5    2    3 2    
     6    2    4 am   BACKBONE|DICT|INTERRES
     7    4    5 1    
     8    4   75 1    
     9    5    6 1    
    10    5   35 1    
    11    5   76 1    
    12    6    7 1    
    13    6   77 1    
    14    6   78 1    
    15    7    8 1    
    16    8    9 1    
    17    8   79 1    
    18    8   80 1    
    19    9   10 ar   
    20    9   14 ar   
    21   10   11 ar   
    22   10   81 1    
    23   11   12 ar   
    24   11   71 1    
    25   12   13 ar   
    26   12   82 1    
    27   13   14 ar   
    28   13   15 1    
    29   14   83 1    
    30   15   16 1    
    31   15   84 1    
    32   15   85 1    
    33   16   17 1    
    34   17   18 1    
    35   17   86 1    
    36   17   87 1    
    37   18   19 1    
    38   18   37 1    
    39   18   88 1    
    40   19   20 am   BACKBONE|DICT|INTERRES
    41   19   89 1    
    42   20   21 2    
    43   20   22 1    
    44   22   23 1    
    45   22   24 1    
    46   22   90 1    
    47   23   91 1    
    48   23   92 1    
    49   23   93 1    
    50   24   25 am   BACKBONE|DICT|INTERRES
    51   24   94 1    
    52   25   26 2    
    53   25   27 1    
    54   27   28 1    
    55   27   29 1    
    56   27   95 1    
    57   28   96 1    
    58   28   97 1    
    59   28   98 1    
    60   29   30 am   BACKBONE|DICT|INTERRES
    61   29   99 1    
    62   30   31 2    
    63   30   32 1    
    64   32   33 1    
    65   32   34 1    
    66   32  100 1    
    67   33  101 1    
    68   33  102 1    
    69   33  103 1    
    70   34   35 am   BACKBONE|DICT|INTERRES
    71   34  104 1    
    72   35   36 2    
    73   37   38 2    
    74   37   39 am   BACKBONE|DICT|INTERRES
    75   39   40 1    
    76   39  105 1    
    77   40   41 1    
    78   40   42 1    
    79   40  106 1    
    80   41  107 1    
    81   41  108 1    
    82   41  109 1    
    83   42   43 2    
    84   42   44 am   BACKBONE|DICT|INTERRES
    85   44   45 1    
    86   44  110 1    
    87   45   46 1    
    88   45   47 1    
    89   45  111 1    
    90   46  112 1    
    91   46  113 1    
    92   46  114 1    
    93   47   48 2    
    94   47   49 am   BACKBONE|DICT|INTERRES
    95   49   50 1    
    96   49  115 1    
    97   50   51 1    
    98   50   52 1    
    99   50  116 1    
   100   51  117 1    
   101   51  118 1    
   102   51  119 1    
   103   52   53 2    
   104   52   54 am   BACKBONE|DICT|INTERRES
   105   54   55 1    
   106   54  120 1    
   107   55   56 1    
   108   55   57 1    
   109   55  121 1    
   110   56  122 1    
   111   56  123 1    
   112   56  124 1    
   113   57   58 2    
   114   57   59 am   BACKBONE|DICT|INTERRES
   115   59   60 1    
   116   59  125 1    
   117   60   61 1    
   118   60   62 1    
   119   60  126 1    
   120   61  127 1    
   121   61  128 1    
   122   61  129 1    
   123   62   63 2    
   124   62   64 am   BACKBONE|DICT|INTERRES
   125   64   65 1    
   126   64  130 1    
   127   65   66 1    
   128   65   69 1    
   129   65  131 1    
   130   66   67 am   BACKBONE|DICT|INTERRES
   131   66   68 2    
   132   67  132 1    
   133   67  133 1    
   134   69   70 1    
   135   69  134 1    
   136   69  135 1    
   137   70   71 1    
   138   71  136 1    
   139   71  137 1    
@<TRIPOS>SUBSTRUCTURE
     1 UNK         1 GROUP             0       ****    0 ROOT    
