@<TRIPOS>MOLECULE
3R136
137   139    1
SMALL
USER_CHARGES


@<TRIPOS>ATOM
      1 CA         26.8825   21.4639    1.4927 C.3       0 UNK        -0.1979 
      2 C          27.7700   22.0085    0.3837 C.2       0 UNK         0.4864 
      3 O          28.1128   23.1900    0.4155 O.2       0 UNK        -0.5359 
      4 N          28.1264   21.1529   -0.5884 N.am      1 UNK        -0.4318 
      5 CA         28.9333   21.4301   -1.7894 C.3       1 UNK         0.0824 
      6 C6         30.4737   21.3568   -1.5447 C.3       12 UNK        -0.0944 
      7 S7         31.1716   22.6536   -0.4586 S.3       12 UNK        -0.2672 
      8 C8         31.5057   21.6975    1.0550 C.3       12 UNK         0.0333 
      9 C9         31.4327   22.5531    2.3130 C.ar      12 UNK        -0.0807 
     10 C10        32.3893   23.5429    2.5592 C.ar      12 UNK        -0.0894 
     11 C11        32.3521   24.2891    3.7424 C.ar      12 UNK        -0.0804 
     12 C12        31.3533   24.0322    4.6872 C.ar      12 UNK        -0.0824 
     13 C13        30.3795   23.0608    4.4439 C.ar      12 UNK        -0.0762 
     14 C14        30.4264   22.3243    3.2566 C.ar      12 UNK        -0.0782 
     15 C15        29.2940   22.7788    5.4730 C.3       12 UNK         0.0230 
     16 S16        27.6689   23.3897    4.9271 S.3       12 UNK        -0.2608 
     17 C17        27.7189   25.1577    5.3908 C.3       12 UNK        -0.0989 
     18 CA         28.2718   26.1033    4.2861 C.3       5 UNK         0.0716 
     19 N          27.7222   25.8346    2.9532 N.am      5 UNK        -0.4135 
     20 C          26.4726   26.0504    2.5151 C.2       4 UNK         0.5031 
     21 O          25.5418   26.4107    3.2378 O.2       4 UNK        -0.5229 
     22 CA         26.2415   25.8720    0.9979 C.3       4 UNK         0.0329 
     23 CB         25.1941   26.8593    0.4414 C.3       4 UNK        -0.2001 
     24 N          27.4845   25.9321    0.2122 N.am      4 UNK        -0.4303 
     25 C          28.3486   26.9571    0.1335 C.2       3 UNK         0.5044 
     26 O          28.1713   28.0480    0.6752 O.2       3 UNK        -0.5152 
     27 CA         29.6813   26.6937   -0.5817 C.3       3 UNK         0.0319 
     28 CB         30.7383   26.2605    0.4465 C.3       3 UNK        -0.2001 
     29 N          29.5966   25.6783   -1.6311 N.am      3 UNK        -0.4354 
     30 C          29.0348   25.8678   -2.8346 C.2       2 UNK         0.4964 
     31 O          28.5000   26.9220   -3.1795 O.2       2 UNK        -0.5047 
     32 CA         29.0998   24.7010   -3.8384 C.3       2 UNK         0.0288 
     33 CB         30.1872   24.9617   -4.8943 C.3       2 UNK        -0.2113 
     34 N          29.3701   23.4181   -3.1867 N.am      2 UNK        -0.4145 
     35 C          28.4402   22.6645   -2.5859 C.2       1 UNK         0.5006 
     36 O          27.2310   22.9018   -2.6571 O.2       1 UNK        -0.5103 
     37 C          28.1650   27.5984    4.6906 C.2       5 UNK         0.5055 
     38 O          28.1337   27.8985    5.8857 O.2       5 UNK        -0.5220 
     39 N          28.0813   28.5113    3.7094 N.am      6 UNK        -0.4450 
     40 CA         27.7891   29.9271    3.9278 C.3       6 UNK         0.0367 
     41 CB         27.1369   30.4986    2.6577 C.3       6 UNK        -0.1929 
     42 C          29.0405   30.7424    4.2765 C.2       6 UNK         0.5070 
     43 O          30.1263   30.4768    3.7545 O.2       6 UNK        -0.5237 
     44 N          28.8370   31.8070    5.0645 N.am      7 UNK        -0.4739 
     45 CA         29.8533   32.8165    5.3862 C.3       7 UNK         0.0276 
     46 CB         29.3002   33.7835    6.4442 C.3       7 UNK        -0.1927 
     47 C          30.3503   33.5906    4.1521 C.2       7 UNK         0.5013 
     48 O          31.5062   34.0103    4.1288 O.2       7 UNK        -0.5193 
     49 N          29.4996   33.7020    3.1208 N.am      8 UNK        -0.4253 
     50 CA         29.8350   34.2399    1.7982 C.3       8 UNK         0.0242 
     51 CB         28.5533   34.3377    0.9550 C.3       8 UNK        -0.2000 
     52 C          30.9081   33.4232    1.0504 C.2       8 UNK         0.4948 
     53 O          31.6223   33.9904    0.2235 O.2       8 UNK        -0.5275 
     54 N          31.0226   32.1257    1.3691 N.am      9 UNK        -0.4246 
     55 CA         32.0658   31.2242    0.8759 C.3       9 UNK         0.0261 
     56 CB         31.4313   29.8479    0.6072 C.3       9 UNK        -0.1959 
     57 C          33.2439   31.1036    1.8645 C.2       9 UNK         0.5033 
     58 O          34.1335   30.2855    1.6290 O.2       9 UNK        -0.5390 
     59 N          33.2255   31.8923    2.9529 N.am      10 UNK        -0.4215 
     60 CA         34.1439   31.8762    4.0990 C.3       10 UNK         0.0240 
     61 CB         35.5895   32.2091    3.6702 C.3       10 UNK        -0.1982 
     62 C          34.0512   30.5942    4.9521 C.2       10 UNK         0.4970 
     63 O          34.9801   30.3078    5.7100 O.2       10 UNK        -0.4916 
     64 N          32.9395   29.8580    4.8363 N.am      11 UNK        -0.4279 
     65 CA         32.6510   28.6448    5.6085 C.3       11 UNK         0.1003 
     66 C          31.9065   28.9664    6.9331 C.2       11 UNK         0.5709 
     67 N          31.8628   28.0179    7.8595 N.am      11 UNK        -0.7358 
     68 O          31.3689   30.0532    7.1372 O.2       11 UNK        -0.4999 
     69 C69        31.8785   27.6152    4.7467 C.3       12 UNK        -0.0954 
     70 S70        32.8965   26.9811    3.3730 S.3       12 UNK        -0.2268 
     71 C71        33.4076   25.3533    4.0049 C.3       12 UNK         0.0203 
     72 H72        25.9232   21.9803    1.4892 H         1 UNK         0.0888 
     73 H73        26.6957   20.3960    1.3817 H         1 UNK         0.0888 
     74 H74        27.3498   21.6272    2.4624 H         1 UNK         0.0888 
     75 H75        27.7681   20.2098   -0.5407 H         1 UNK         0.3017 
     76 H76        28.7042   20.5971   -2.4559 H         1 UNK         0.0873 
     77 H77        31.0113   21.3865   -2.4939 H         1 UNK         0.0745 
     78 H78        30.7196   20.3776   -1.1317 H         1 UNK         0.0745 
     79 H79        30.7937   20.8742    1.1289 H         1 UNK         0.0705 
     80 H80        32.4940   21.2422    0.9789 H         1 UNK         0.0705 
     81 H81        33.1659   23.7277    1.8296 H         1 UNK         0.1334 
     82 H82        31.3319   24.5844    5.6155 H         1 UNK         0.1417 
     83 H83        29.6825   21.5611    3.0764 H         1 UNK         0.1562 
     84 H84        29.5470   23.2064    6.4443 H         1 UNK         0.0748 
     85 H85        29.2253   21.7010    5.6276 H         1 UNK         0.0748 
     86 H86        28.2975   25.2665    6.3099 H         1 UNK         0.0940 
     87 H87        26.6984   25.4479    5.6480 H         1 UNK         0.0940 
     88 H88        29.3400   25.9091    4.1943 H         1 UNK         0.0703 
     89 H89        28.3846   25.4827    2.2772 H         1 UNK         0.3081 
     90 H90        25.8504   24.8620    0.8684 H         1 UNK         0.0719 
     91 H91        25.4865   27.8965    0.6078 H         1 UNK         0.0809 
     92 H92        25.0477   26.7192   -0.6296 H         1 UNK         0.0809 
     93 H93        24.2257   26.7147    0.9216 H         1 UNK         0.0809 
     94 H94        27.7845   25.0328   -0.1577 H         1 UNK         0.2990 
     95 H95        30.0050   27.6327   -1.0352 H         1 UNK         0.0690 
     96 H96        31.7246   26.1660   -0.0079 H         1 UNK         0.0788 
     97 H97        30.4888   25.3037    0.9074 H         1 UNK         0.0788 
     98 H98        30.8220   26.9908    1.2511 H         1 UNK         0.0788 
     99 H99        29.9898   24.7725   -1.4132 H         1 UNK         0.2993 
    100 H100       28.1342   24.6507   -4.3468 H         1 UNK         0.0949 
    101 H101       30.2109   24.1695   -5.6430 H         1 UNK         0.0767 
    102 H102       30.0021   25.8985   -5.4220 H         1 UNK         0.0767 
    103 H103       31.1791   25.0308   -4.4456 H         1 UNK         0.0767 
    104 H104       30.3402   23.1532   -3.0875 H         1 UNK         0.3013 
    105 H105       28.1556   28.2172    2.7408 H         1 UNK         0.3121 
    106 H106       27.0720   30.0114    4.7476 H         1 UNK         0.0774 
    107 H107       26.8148   31.5295    2.8081 H         1 UNK         0.0815 
    108 H108       27.8262   30.4917    1.8119 H         1 UNK         0.0815 
    109 H109       26.2553   29.9240    2.3720 H         1 UNK         0.0815 
    110 H110       27.9144   31.9596    5.4472 H         1 UNK         0.2987 
    111 H111       30.7157   32.2982    5.8105 H         1 UNK         0.0949 
    112 H112       28.4186   34.3166    6.0860 H         1 UNK         0.0806 
    113 H113       29.0276   33.2560    7.3585 H         1 UNK         0.0806 
    114 H114       30.0462   34.5320    6.7155 H         1 UNK         0.0806 
    115 H115       28.5665   33.3364    3.2395 H         1 UNK         0.3010 
    116 H116       30.2326   35.2471    1.9409 H         1 UNK         0.0829 
    117 H117       27.8126   34.9815    1.4298 H         1 UNK         0.0813 
    118 H118       28.7647   34.7616   -0.0278 H         1 UNK         0.0813 
    119 H119       28.0978   33.3592    0.7960 H         1 UNK         0.0813 
    120 H120       30.4174   31.7367    2.0839 H         1 UNK         0.3038 
    121 H121       32.4701   31.6007   -0.0659 H         1 UNK         0.0769 
    122 H122       31.0623   29.3883    1.5246 H         1 UNK         0.0811 
    123 H123       32.1545   29.1591    0.1686 H         1 UNK         0.0811 
    124 H124       30.5942   29.9242   -0.0867 H         1 UNK         0.0811 
    125 H125       32.4648   32.5572    3.0440 H         1 UNK         0.3204 
    126 H126       33.8103   32.6828    4.7531 H         1 UNK         0.0748 
    127 H127       36.2279   32.3713    4.5395 H         1 UNK         0.0771 
    128 H128       36.0369   31.4032    3.0878 H         1 UNK         0.0771 
    129 H129       35.6260   33.1184    3.0703 H         1 UNK         0.0771 
    130 H130       32.1832   30.1810    4.2449 H         1 UNK         0.2980 
    131 H131       33.5976   28.1842    5.8981 H         1 UNK         0.0545 
    132 H132       31.3815   28.2066    8.7246 H         1 UNK         0.3459 
    133 H133       32.3099   27.1259    7.7201 H         1 UNK         0.3459 
    134 H134       31.5286   26.7824    5.3536 H         1 UNK         0.0616 
    135 H135       30.9868   28.0702    4.3183 H         1 UNK         0.0616 
    136 H136       33.6315   25.4213    5.0705 H         1 UNK         0.0634 
    137 H137       34.3421   25.0716    3.5175 H         1 UNK         0.0634 
@<TRIPOS>BOND
     1    1    2 1    
     2    1   72 1    
     3    1   73 1    
     4    1   74 1    
     5    2    3 2    
     6    2    4 am   BACKBONE|DICT|INTERRES
     7    4    5 1    
     8    4   75 1    
     9    5    6 1    
    10    5   35 1    
    11    5   76 1    
    12    6    7 1    
    13    6   77 1    
    14    6   78 1    
    15    7    8 1    
    16    8    9 1    
    17    8   79 1    
    18    8   80 1    
    19    9   10 ar   
    20    9   14 ar   
    21   10   11 ar   
    22   10   81 1    
    23   11   12 ar   
    24   11   71 1    
    25   12   13 ar   
    26   12   82 1    
    27   13   14 ar   
    28   13   15 1    
    29   14   83 1    
    30   15   16 1    
    31   15   84 1    
    32   15   85 1    
    33   16   17 1    
    34   17   18 1    
    35   17   86 1    
    36   17   87 1    
    37   18   19 1    
    38   18   37 1    
    39   18   88 1    
    40   19   20 am   BACKBONE|DICT|INTERRES
    41   19   89 1    
    42   20   21 2    
    43   20   22 1    
    44   22   23 1    
    45   22   24 1    
    46   22   90 1    
    47   23   91 1    
    48   23   92 1    
    49   23   93 1    
    50   24   25 am   BACKBONE|DICT|INTERRES
    51   24   94 1    
    52   25   26 2    
    53   25   27 1    
    54   27   28 1    
    55   27   29 1    
    56   27   95 1    
    57   28   96 1    
    58   28   97 1    
    59   28   98 1    
    60   29   30 am   BACKBONE|DICT|INTERRES
    61   29   99 1    
    62   30   31 2    
    63   30   32 1    
    64   32   33 1    
    65   32   34 1    
    66   32  100 1    
    67   33  101 1    
    68   33  102 1    
    69   33  103 1    
    70   34   35 am   BACKBONE|DICT|INTERRES
    71   34  104 1    
    72   35   36 2    
    73   37   38 2    
    74   37   39 am   BACKBONE|DICT|INTERRES
    75   39   40 1    
    76   39  105 1    
    77   40   41 1    
    78   40   42 1    
    79   40  106 1    
    80   41  107 1    
    81   41  108 1    
    82   41  109 1    
    83   42   43 2    
    84   42   44 am   BACKBONE|DICT|INTERRES
    85   44   45 1    
    86   44  110 1    
    87   45   46 1    
    88   45   47 1    
    89   45  111 1    
    90   46  112 1    
    91   46  113 1    
    92   46  114 1    
    93   47   48 2    
    94   47   49 am   BACKBONE|DICT|INTERRES
    95   49   50 1    
    96   49  115 1    
    97   50   51 1    
    98   50   52 1    
    99   50  116 1    
   100   51  117 1    
   101   51  118 1    
   102   51  119 1    
   103   52   53 2    
   104   52   54 am   BACKBONE|DICT|INTERRES
   105   54   55 1    
   106   54  120 1    
   107   55   56 1    
   108   55   57 1    
   109   55  121 1    
   110   56  122 1    
   111   56  123 1    
   112   56  124 1    
   113   57   58 2    
   114   57   59 am   BACKBONE|DICT|INTERRES
   115   59   60 1    
   116   59  125 1    
   117   60   61 1    
   118   60   62 1    
   119   60  126 1    
   120   61  127 1    
   121   61  128 1    
   122   61  129 1    
   123   62   63 2    
   124   62   64 am   BACKBONE|DICT|INTERRES
   125   64   65 1    
   126   64  130 1    
   127   65   66 1    
   128   65   69 1    
   129   65  131 1    
   130   66   67 am   BACKBONE|DICT|INTERRES
   131   66   68 2    
   132   67  132 1    
   133   67  133 1    
   134   69   70 1    
   135   69  134 1    
   136   69  135 1    
   137   70   71 1    
   138   71  136 1    
   139   71  137 1    
@<TRIPOS>SUBSTRUCTURE
     1 UNK         1 GROUP             0       ****    0 ROOT    
