@<TRIPOS>MOLECULE
3R136
137   139    1
SMALL
USER_CHARGES


@<TRIPOS>ATOM
      1 CA         30.1349   26.4000   -4.3854 C.3       0 UNK        -0.1979 
      2 C          29.3781   26.0092   -3.1260 C.2       0 UNK         0.4864 
      3 O          28.3156   26.5683   -2.8547 O.2       0 UNK        -0.5359 
      4 N          29.9076   25.0415   -2.3625 N.am      1 UNK        -0.4318 
      5 CA         29.3999   24.5673   -1.0619 C.3       1 UNK         0.0824 
      6 C6         30.3014   23.4602   -0.4606 C.3       12 UNK        -0.0944 
      7 S7         32.0645   23.9240   -0.3963 S.3       12 UNK        -0.2672 
      8 C8         32.6493   22.9196    1.0035 C.3       12 UNK         0.0333 
      9 C9         32.4846   23.6520    2.3263 C.ar      12 UNK        -0.0807 
     10 C10        33.4404   24.5928    2.7177 C.ar      12 UNK        -0.0894 
     11 C11        33.3211   25.2620    3.9381 C.ar      12 UNK        -0.0804 
     12 C12        32.2270   24.9932    4.7675 C.ar      12 UNK        -0.0824 
     13 C13        31.2744   24.0389    4.3963 C.ar      12 UNK        -0.0762 
     14 C14        31.4054   23.3750    3.1714 C.ar      12 UNK        -0.0782 
     15 C15        30.1378   23.6751    5.3409 C.3       12 UNK         0.0230 
     16 S16        28.5266   24.2890    4.7612 S.3       12 UNK        -0.2608 
     17 C17        28.5282   26.0280    5.3235 C.3       12 UNK        -0.0989 
     18 CA         28.3258   27.0352    4.1640 C.3       5 UNK         0.0716 
     19 N          27.1422   26.7148    3.3579 N.am      5 UNK        -0.4135 
     20 C          26.8417   27.2822    2.1850 C.2       4 UNK         0.5031 
     21 O          27.6067   28.0222    1.5590 O.2       4 UNK        -0.5229 
     22 CA         25.4186   27.0450    1.6699 C.3       4 UNK         0.0329 
     23 CB         24.4635   28.0878    2.2925 C.3       4 UNK        -0.2001 
     24 N          25.4304   27.1165    0.2104 N.am      4 UNK        -0.4303 
     25 C          24.3868   26.9582   -0.6130 C.2       3 UNK         0.5044 
     26 O          23.2226   26.8008   -0.2432 O.2       3 UNK        -0.5152 
     27 CA         24.7115   26.9154   -2.1152 C.3       3 UNK         0.0319 
     28 CB         25.4317   28.1927   -2.5845 C.3       3 UNK        -0.2001 
     29 N          25.5154   25.7329   -2.4341 N.am      3 UNK        -0.4354 
     30 C          25.0532   24.4713   -2.3788 C.2       2 UNK         0.4964 
     31 O          23.8688   24.1879   -2.1948 O.2       2 UNK        -0.5047 
     32 CA         26.0595   23.3164   -2.5524 C.3       2 UNK         0.0288 
     33 CB         25.9725   22.7356   -3.9737 C.3       2 UNK        -0.2113 
     34 N          27.4479   23.6840   -2.2746 N.am      2 UNK        -0.4145 
     35 C          27.9327   24.0829   -1.0889 C.2       1 UNK         0.5006 
     36 O          27.2714   24.0977   -0.0499 O.2       1 UNK        -0.5103 
     37 C          28.1896   28.4750    4.7080 C.2       5 UNK         0.5055 
     38 O          27.0647   28.9507    4.8847 O.2       5 UNK        -0.5220 
     39 N          29.3182   29.1618    4.9261 N.am      6 UNK        -0.4450 
     40 CA         29.4527   30.5899    5.2587 C.3       6 UNK         0.0367 
     41 CB         28.6395   31.0065    6.5005 C.3       6 UNK        -0.1929 
     42 C          29.1897   31.5169    4.0584 C.2       6 UNK         0.5070 
     43 O          29.9215   32.4918    3.8900 O.2       6 UNK        -0.5237 
     44 N          28.1898   31.1901    3.2277 N.am      7 UNK        -0.4739 
     45 CA         27.9053   31.8640    1.9596 C.3       7 UNK         0.0276 
     46 CB         26.5013   31.4816    1.4643 C.3       7 UNK        -0.1927 
     47 C          28.9704   31.5462    0.8977 C.2       7 UNK         0.5013 
     48 O          29.5024   32.4716    0.2835 O.2       7 UNK        -0.5193 
     49 N          29.2724   30.2515    0.7137 N.am      8 UNK        -0.4253 
     50 CA         30.3225   29.7692   -0.1876 C.3       8 UNK         0.0242 
     51 CB         30.1675   28.2548   -0.3927 C.3       8 UNK        -0.2000 
     52 C          31.7305   30.0991    0.3305 C.2       8 UNK         0.4948 
     53 O          32.5581   30.6051   -0.4285 O.2       8 UNK        -0.5275 
     54 N          31.9628   29.8147    1.6158 N.am      9 UNK        -0.4246 
     55 CA         33.1951   30.0674    2.3517 C.3       9 UNK         0.0261 
     56 CB         34.2979   29.0818    1.9206 C.3       9 UNK        -0.1959 
     57 C          32.8802   29.9079    3.8399 C.2       9 UNK         0.5033 
     58 O          32.0698   29.0457    4.1927 O.2       9 UNK        -0.5390 
     59 N          33.5342   30.7150    4.6811 N.am      10 UNK        -0.4215 
     60 CA         33.3972   30.7071    6.1387 C.3       10 UNK         0.0240 
     61 CB         33.0433   32.1281    6.6195 C.3       10 UNK        -0.1982 
     62 C          34.6972   30.1746    6.7585 C.2       10 UNK         0.4970 
     63 O          35.4207   30.9159    7.4256 O.2       10 UNK        -0.4916 
     64 N          34.9860   28.8990    6.4817 N.am      11 UNK        -0.4279 
     65 CA         36.1906   28.1850    6.9327 C.3       11 UNK         0.1003 
     66 C          36.1762   27.7301    8.4226 C.2       11 UNK         0.5709 
     67 N          35.0693   27.8503    9.1467 N.am      11 UNK        -0.7358 
     68 O          37.1961   27.2753    8.9355 O.2       11 UNK        -0.4999 
     69 C69        36.5626   27.0371    5.9557 C.3       12 UNK        -0.0954 
     70 S70        35.3037   25.7199    5.8196 S.3       12 UNK        -0.2268 
     71 C71        34.3769   26.2725    4.3555 C.3       12 UNK         0.0203 
     72 H72        29.5082   26.2436   -5.2629 H         1 UNK         0.0888 
     73 H73        30.4069   27.4544   -4.3440 H         1 UNK         0.0888 
     74 H74        31.0479   25.8182   -4.5104 H         1 UNK         0.0888 
     75 H75        30.7879   24.6291   -2.6394 H         1 UNK         0.3017 
     76 H76        29.4258   25.4241   -0.3862 H         1 UNK         0.0873 
     77 H77        29.9657   23.2187    0.5498 H         1 UNK         0.0745 
     78 H78        30.2202   22.5381   -1.0397 H         1 UNK         0.0745 
     79 H79        33.7040   22.6873    0.8484 H         1 UNK         0.0705 
     80 H80        32.1297   21.9601    1.0196 H         1 UNK         0.0705 
     81 H81        34.2807   24.7994    2.0688 H         1 UNK         0.1334 
     82 H82        32.1383   25.5063    5.7154 H         1 UNK         0.1417 
     83 H83        30.6715   22.6338    2.8852 H         1 UNK         0.1562 
     84 H84        30.3313   24.0386    6.3514 H         1 UNK         0.0748 
     85 H85        30.0832   22.5884    5.4213 H         1 UNK         0.0748 
     86 H86        29.4624   26.2420    5.8460 H         1 UNK         0.0940 
     87 H87        27.7364   26.1337    6.0683 H         1 UNK         0.0940 
     88 H88        29.1997   26.9932    3.5094 H         1 UNK         0.0703 
     89 H89        26.4501   26.1379    3.8118 H         1 UNK         0.3081 
     90 H90        25.1051   26.0399    1.9585 H         1 UNK         0.0719 
     91 H91        24.6309   29.0838    1.8845 H         1 UNK         0.0809 
     92 H92        23.4184   27.8309    2.1240 H         1 UNK         0.0809 
     93 H93        24.5974   28.1539    3.3734 H         1 UNK         0.0809 
     94 H94        26.3532   27.2497   -0.1838 H         1 UNK         0.2990 
     95 H95        23.7683   26.8454   -2.6615 H         1 UNK         0.0690 
     96 H96        25.5963   28.1774   -3.6620 H         1 UNK         0.0788 
     97 H97        26.4028   28.3216   -2.1052 H         1 UNK         0.0788 
     98 H98        24.8372   29.0791   -2.3597 H         1 UNK         0.0788 
     99 H99        26.5063   25.8921   -2.5995 H         1 UNK         0.2993 
    100 H100       25.7769   22.5359   -1.8426 H         1 UNK         0.0949 
    101 H101       26.2642   23.4685   -4.7272 H         1 UNK         0.0767 
    102 H102       26.6146   21.8617   -4.0864 H         1 UNK         0.0767 
    103 H103       24.9544   22.4185   -4.2046 H         1 UNK         0.0767 
    104 H104       28.0726   23.7145   -3.0670 H         1 UNK         0.3013 
    105 H105       30.2108   28.7188    4.7182 H         1 UNK         0.3121 
    106 H106       30.5005   30.7240    5.5213 H         1 UNK         0.0774 
    107 H107       28.9145   32.0132    6.8172 H         1 UNK         0.0815 
    108 H108       27.5664   31.0163    6.3096 H         1 UNK         0.0815 
    109 H109       28.8276   30.3391    7.3413 H         1 UNK         0.0815 
    110 H110       27.6186   30.3886    3.4713 H         1 UNK         0.2987 
    111 H111       27.9196   32.9417    2.1376 H         1 UNK         0.0949 
    112 H112       26.2449   32.0376    0.5615 H         1 UNK         0.0806 
    113 H113       26.4322   30.4221    1.2201 H         1 UNK         0.0806 
    114 H114       25.7395   31.7063    2.2109 H         1 UNK         0.0806 
    115 H115       28.7303   29.5427    1.2023 H         1 UNK         0.3010 
    116 H116       30.1937   30.2598   -1.1549 H         1 UNK         0.0829 
    117 H117       29.1842   28.0170   -0.7971 H         1 UNK         0.0813 
    118 H118       30.9119   27.8753   -1.0938 H         1 UNK         0.0813 
    119 H119       30.2836   27.7012    0.5400 H         1 UNK         0.0813 
    120 H120       31.2273   29.4045    2.1763 H         1 UNK         0.3038 
    121 H121       33.5170   31.0933    2.1605 H         1 UNK         0.0769 
    122 H122       33.9597   28.0479    1.9964 H         1 UNK         0.0811 
    123 H123       35.1882   29.1856    2.5424 H         1 UNK         0.0811 
    124 H124       34.6047   29.2541    0.8891 H         1 UNK         0.0811 
    125 H125       34.2162   31.3601    4.3054 H         1 UNK         0.3204 
    126 H126       32.5941   30.0371    6.4526 H         1 UNK         0.0748 
    127 H127       32.9200   32.1544    7.7030 H         1 UNK         0.0771 
    128 H128       33.8187   32.8501    6.3605 H         1 UNK         0.0771 
    129 H129       32.1082   32.4747    6.1790 H         1 UNK         0.0771 
    130 H130       34.3277   28.3566    5.9438 H         1 UNK         0.2980 
    131 H131       37.0133   28.9005    6.8768 H         1 UNK         0.0545 
    132 H132       34.2276   28.2219    8.7389 H         1 UNK         0.3459 
    133 H133       35.0778   27.5580   10.1111 H         1 UNK         0.3459 
    134 H134       37.5018   26.5725    6.2609 H         1 UNK         0.0616 
    135 H135       36.7575   27.4487    4.9642 H         1 UNK         0.0616 
    136 H136       35.0776   26.4554    3.5396 H         1 UNK         0.0634 
    137 H137       33.8905   27.2208    4.5700 H         1 UNK         0.0634 
@<TRIPOS>BOND
     1    1    2 1    
     2    1   72 1    
     3    1   73 1    
     4    1   74 1    
     5    2    3 2    
     6    2    4 am   BACKBONE|DICT|INTERRES
     7    4    5 1    
     8    4   75 1    
     9    5    6 1    
    10    5   35 1    
    11    5   76 1    
    12    6    7 1    
    13    6   77 1    
    14    6   78 1    
    15    7    8 1    
    16    8    9 1    
    17    8   79 1    
    18    8   80 1    
    19    9   10 ar   
    20    9   14 ar   
    21   10   11 ar   
    22   10   81 1    
    23   11   12 ar   
    24   11   71 1    
    25   12   13 ar   
    26   12   82 1    
    27   13   14 ar   
    28   13   15 1    
    29   14   83 1    
    30   15   16 1    
    31   15   84 1    
    32   15   85 1    
    33   16   17 1    
    34   17   18 1    
    35   17   86 1    
    36   17   87 1    
    37   18   19 1    
    38   18   37 1    
    39   18   88 1    
    40   19   20 am   BACKBONE|DICT|INTERRES
    41   19   89 1    
    42   20   21 2    
    43   20   22 1    
    44   22   23 1    
    45   22   24 1    
    46   22   90 1    
    47   23   91 1    
    48   23   92 1    
    49   23   93 1    
    50   24   25 am   BACKBONE|DICT|INTERRES
    51   24   94 1    
    52   25   26 2    
    53   25   27 1    
    54   27   28 1    
    55   27   29 1    
    56   27   95 1    
    57   28   96 1    
    58   28   97 1    
    59   28   98 1    
    60   29   30 am   BACKBONE|DICT|INTERRES
    61   29   99 1    
    62   30   31 2    
    63   30   32 1    
    64   32   33 1    
    65   32   34 1    
    66   32  100 1    
    67   33  101 1    
    68   33  102 1    
    69   33  103 1    
    70   34   35 am   BACKBONE|DICT|INTERRES
    71   34  104 1    
    72   35   36 2    
    73   37   38 2    
    74   37   39 am   BACKBONE|DICT|INTERRES
    75   39   40 1    
    76   39  105 1    
    77   40   41 1    
    78   40   42 1    
    79   40  106 1    
    80   41  107 1    
    81   41  108 1    
    82   41  109 1    
    83   42   43 2    
    84   42   44 am   BACKBONE|DICT|INTERRES
    85   44   45 1    
    86   44  110 1    
    87   45   46 1    
    88   45   47 1    
    89   45  111 1    
    90   46  112 1    
    91   46  113 1    
    92   46  114 1    
    93   47   48 2    
    94   47   49 am   BACKBONE|DICT|INTERRES
    95   49   50 1    
    96   49  115 1    
    97   50   51 1    
    98   50   52 1    
    99   50  116 1    
   100   51  117 1    
   101   51  118 1    
   102   51  119 1    
   103   52   53 2    
   104   52   54 am   BACKBONE|DICT|INTERRES
   105   54   55 1    
   106   54  120 1    
   107   55   56 1    
   108   55   57 1    
   109   55  121 1    
   110   56  122 1    
   111   56  123 1    
   112   56  124 1    
   113   57   58 2    
   114   57   59 am   BACKBONE|DICT|INTERRES
   115   59   60 1    
   116   59  125 1    
   117   60   61 1    
   118   60   62 1    
   119   60  126 1    
   120   61  127 1    
   121   61  128 1    
   122   61  129 1    
   123   62   63 2    
   124   62   64 am   BACKBONE|DICT|INTERRES
   125   64   65 1    
   126   64  130 1    
   127   65   66 1    
   128   65   69 1    
   129   65  131 1    
   130   66   67 am   BACKBONE|DICT|INTERRES
   131   66   68 2    
   132   67  132 1    
   133   67  133 1    
   134   69   70 1    
   135   69  134 1    
   136   69  135 1    
   137   70   71 1    
   138   71  136 1    
   139   71  137 1    
@<TRIPOS>SUBSTRUCTURE
     1 UNK         1 GROUP             0       ****    0 ROOT    
