@<TRIPOS>MOLECULE
3R136
137   139    1
SMALL
USER_CHARGES


@<TRIPOS>ATOM
      1 CA         31.7969   25.3290   -1.6195 C.3       0 UNK        -0.1979 
      2 C          30.7899   24.7607   -0.6318 C.2       0 UNK         0.4864 
      3 O          30.1018   25.5272    0.0489 O.2       0 UNK        -0.5359 
      4 N          30.6944   23.4257   -0.5577 N.am      1 UNK        -0.4318 
      5 CA         29.7860   22.6897    0.3262 C.3       1 UNK         0.0824 
      6 C6         30.0007   21.1547    0.2672 C.3       12 UNK        -0.0944 
      7 S7         31.7311   20.6368    0.5412 S.3       12 UNK        -0.2672 
      8 C8         31.7400   20.2141    2.3131 C.3       12 UNK         0.0333 
      9 C9         31.7874   21.4646    3.1766 C.ar      12 UNK        -0.0807 
     10 C10        33.0062   22.1143    3.3995 C.ar      12 UNK        -0.0894 
     11 C11        33.0529   23.2870    4.1581 C.ar      12 UNK        -0.0804 
     12 C12        31.8759   23.8033    4.7015 C.ar      12 UNK        -0.0824 
     13 C13        30.6500   23.1789    4.4611 C.ar      12 UNK        -0.0762 
     14 C14        30.6133   21.9926    3.7228 C.ar      12 UNK        -0.0782 
     15 C15        29.3626   23.8248    4.9442 C.3       12 UNK         0.0230 
     16 S16        28.7135   24.9723    3.6868 S.3       12 UNK        -0.2608 
     17 C17        29.9590   26.3098    3.7347 C.3       12 UNK        -0.0989 
     18 CA         29.4609   27.6925    3.2501 C.3       5 UNK         0.0716 
     19 N          29.3504   27.7687    1.7859 N.am      5 UNK        -0.4135 
     20 C          29.2815   28.9226    1.1046 C.2       4 UNK         0.5031 
     21 O          29.1794   30.0229    1.6464 O.2       4 UNK        -0.5229 
     22 CA         29.3470   28.8673   -0.4240 C.3       4 UNK         0.0329 
     23 CB         30.8104   28.7912   -0.8874 C.3       4 UNK        -0.2001 
     24 N          28.5968   27.7285   -0.9529 N.am      4 UNK        -0.4303 
     25 C          27.4920   27.8349   -1.7033 C.2       3 UNK         0.5044 
     26 O          26.9929   28.9065   -2.0499 O.2       3 UNK        -0.5152 
     27 CA         26.8225   26.5269   -2.1571 C.3       3 UNK         0.0319 
     28 CB         27.5001   25.9928   -3.4294 C.3       3 UNK        -0.2001 
     29 N          26.8072   25.4702   -1.1450 N.am      3 UNK        -0.4354 
     30 C          26.2336   25.5332    0.0634 C.2       2 UNK         0.4964 
     31 O          25.6759   26.5367    0.5059 O.2       2 UNK        -0.5047 
     32 CA         26.2972   24.2661    0.9364 C.3       2 UNK         0.0288 
     33 CB         25.2037   23.2538    0.5429 C.3       2 UNK        -0.2113 
     34 N          27.6293   23.6468    0.9872 N.am      2 UNK        -0.4145 
     35 C          28.3210   23.0459    0.0093 C.2       1 UNK         0.5006 
     36 O          27.8769   22.8275   -1.1209 O.2       1 UNK        -0.5103 
     37 C          28.2183   28.1806    4.0306 C.2       5 UNK         0.5055 
     38 O          28.3341   28.4371    5.2292 O.2       5 UNK        -0.5220 
     39 N          27.0629   28.3102    3.3628 N.am      6 UNK        -0.4450 
     40 CA         25.8265   28.8235    3.9578 C.3       6 UNK         0.0367 
     41 CB         24.6436   28.4861    3.0369 C.3       6 UNK        -0.1929 
     42 C          25.8626   30.3354    4.2533 C.2       6 UNK         0.5070 
     43 O          25.1463   30.7837    5.1489 O.2       6 UNK        -0.5237 
     44 N          26.6612   31.0957    3.4902 N.am      7 UNK        -0.4739 
     45 CA         26.7872   32.5509    3.6129 C.3       7 UNK         0.0276 
     46 CB         27.3499   33.1600    2.3170 C.3       7 UNK        -0.1927 
     47 C          27.4972   33.0549    4.8941 C.2       7 UNK         0.5013 
     48 O          26.9166   33.9062    5.5659 O.2       7 UNK        -0.5193 
     49 N          28.6886   32.5784    5.2944 N.am      8 UNK        -0.4253 
     50 CA         29.6430   31.7341    4.5781 C.3       8 UNK         0.0242 
     51 CB         30.4955   30.9606    5.5985 C.3       8 UNK        -0.2000 
     52 C          30.5510   32.5957    3.6914 C.2       8 UNK         0.4948 
     53 O          31.1202   33.5760    4.1761 O.2       8 UNK        -0.5275 
     54 N          30.6836   32.1982    2.4229 N.am      9 UNK        -0.4246 
     55 CA         31.5403   32.8401    1.4250 C.3       9 UNK         0.0261 
     56 CB         30.7990   32.8725    0.0777 C.3       9 UNK        -0.1959 
     57 C          32.8976   32.1311    1.2819 C.2       9 UNK         0.5033 
     58 O          33.8302   32.7347    0.7493 O.2       9 UNK        -0.5390 
     59 N          32.9984   30.8828    1.7557 N.am      10 UNK        -0.4215 
     60 CA         34.2154   30.0788    1.7749 C.3       10 UNK         0.0240 
     61 CB         34.4107   29.3725    0.4207 C.3       10 UNK        -0.1982 
     62 C          34.1065   29.0552    2.9088 C.2       10 UNK         0.4970 
     63 O          32.9935   28.6233    3.2182 O.2       10 UNK        -0.4916 
     64 N          35.2680   28.7068    3.4775 N.am      11 UNK        -0.4279 
     65 CA         35.5839   27.6852    4.4991 C.3       11 UNK         0.1003 
     66 C          34.7138   27.5756    5.7913 C.2       11 UNK         0.5709 
     67 N          33.5670   28.2280    5.8960 N.am      11 UNK        -0.7358 
     68 O          35.1191   26.9103    6.7417 O.2       11 UNK        -0.4999 
     69 C69        35.9261   26.3050    3.8699 C.3       12 UNK        -0.0954 
     70 S70        34.4983   25.4069    3.1777 S.3       12 UNK        -0.2268 
     71 C71        34.3593   24.0325    4.3615 C.3       12 UNK         0.0203 
     72 H72        32.2715   24.5473   -2.2123 H         1 UNK         0.0888 
     73 H73        31.3037   26.0193   -2.3032 H         1 UNK         0.0888 
     74 H74        32.5776   25.8710   -1.0866 H         1 UNK         0.0888 
     75 H75        31.2819   22.8498   -1.1430 H         1 UNK         0.3017 
     76 H76        30.0097   23.0298    1.3373 H         1 UNK         0.0873 
     77 H77        29.3579   20.6523    0.9923 H         1 UNK         0.0745 
     78 H78        29.7032   20.7695   -0.7103 H         1 UNK         0.0745 
     79 H79        32.6151   19.5966    2.5216 H         1 UNK         0.0705 
     80 H80        30.8716   19.6005    2.5574 H         1 UNK         0.0705 
     81 H81        33.9130   21.7202    2.9609 H         1 UNK         0.1334 
     82 H82        31.9130   24.7221    5.2703 H         1 UNK         0.1417 
     83 H83        29.6656   21.5066    3.5346 H         1 UNK         0.1562 
     84 H84        29.5241   24.3546    5.8844 H         1 UNK         0.0748 
     85 H85        28.6125   23.0593    5.1490 H         1 UNK         0.0748 
     86 H86        30.8272   26.0026    3.1478 H         1 UNK         0.0940 
     87 H87        30.3186   26.4097    4.7603 H         1 UNK         0.0940 
     88 H88        30.2502   28.3993    3.5155 H         1 UNK         0.0703 
     89 H89        29.4876   26.9003    1.2755 H         1 UNK         0.3081 
     90 H90        28.9312   29.8055   -0.7972 H         1 UNK         0.0719 
     91 H91        31.3685   29.6723   -0.5708 H         1 UNK         0.0809 
     92 H92        30.8812   28.7365   -1.9737 H         1 UNK         0.0809 
     93 H93        31.3213   27.9238   -0.4714 H         1 UNK         0.0809 
     94 H94        28.9437   26.8049   -0.7062 H         1 UNK         0.2990 
     95 H95        25.7826   26.7587   -2.3959 H         1 UNK         0.0690 
     96 H96        26.9711   25.1261   -3.8265 H         1 UNK         0.0788 
     97 H97        28.5335   25.6976   -3.2423 H         1 UNK         0.0788 
     98 H98        27.5129   26.7507   -4.2140 H         1 UNK         0.0788 
     99 H99        27.2351   24.5836   -1.3990 H         1 UNK         0.2993 
    100 H100       26.0869   24.5878    1.9580 H         1 UNK         0.0949 
    101 H101       24.2137   23.7051    0.6212 H         1 UNK         0.0767 
    102 H102       25.3165   22.9023   -0.4830 H         1 UNK         0.0767 
    103 H103       25.2160   22.3835    1.1991 H         1 UNK         0.0767 
    104 H104       28.1254   23.8334    1.8514 H         1 UNK         0.3013 
    105 H105       27.0327   28.0519    2.3863 H         1 UNK         0.3121 
    106 H106       25.6698   28.3105    4.9094 H         1 UNK         0.0774 
    107 H107       23.7048   28.8527    3.4544 H         1 UNK         0.0815 
    108 H108       24.7593   28.9338    2.0490 H         1 UNK         0.0815 
    109 H109       24.5387   27.4089    2.9061 H         1 UNK         0.0815 
    110 H110       27.2330   30.6429    2.7889 H         1 UNK         0.2987 
    111 H111       25.7676   32.9362    3.6928 H         1 UNK         0.0949 
    112 H112       26.5731   33.2266    1.5551 H         1 UNK         0.0806 
    113 H113       27.7287   34.1706    2.4766 H         1 UNK         0.0806 
    114 H114       28.1539   32.5644    1.8935 H         1 UNK         0.0806 
    115 H115       29.0616   32.9783    6.1425 H         1 UNK         0.3010 
    116 H116       29.1198   31.0027    3.9716 H         1 UNK         0.0829 
    117 H117       29.8735   30.3638    6.2655 H         1 UNK         0.0813 
    118 H118       31.1794   30.2756    5.0956 H         1 UNK         0.0813 
    119 H119       31.0983   31.6277    6.2164 H         1 UNK         0.0813 
    120 H120       30.1446   31.3907    2.1057 H         1 UNK         0.3038 
    121 H121       31.7442   33.8718    1.7199 H         1 UNK         0.0769 
    122 H122       30.5245   31.8740   -0.2609 H         1 UNK         0.0811 
    123 H123       31.4171   33.3239   -0.6996 H         1 UNK         0.0811 
    124 H124       29.8853   33.4631    0.1455 H         1 UNK         0.0811 
    125 H125       32.2099   30.4553    2.2233 H         1 UNK         0.3204 
    126 H126       35.0684   30.7322    1.9715 H         1 UNK         0.0748 
    127 H127       35.3409   28.8033    0.4079 H         1 UNK         0.0771 
    128 H128       33.6007   28.6732    0.2119 H         1 UNK         0.0771 
    129 H129       34.4575   30.0875   -0.4009 H         1 UNK         0.0771 
    130 H130       36.0884   29.1845    3.1345 H         1 UNK         0.2980 
    131 H131       36.5311   28.0540    4.8948 H         1 UNK         0.0545 
    132 H132       33.1812   28.6529    5.0602 H         1 UNK         0.3459 
    133 H133       33.0265   28.1633    6.7427 H         1 UNK         0.3459 
    134 H134       36.6485   26.4409    3.0639 H         1 UNK         0.0616 
    135 H135       36.4331   25.6737    4.6018 H         1 UNK         0.0616 
    136 H136       34.4049   24.4182    5.3812 H         1 UNK         0.0634 
    137 H137       35.2110   23.3614    4.2414 H         1 UNK         0.0634 
@<TRIPOS>BOND
     1    1    2 1    
     2    1   72 1    
     3    1   73 1    
     4    1   74 1    
     5    2    3 2    
     6    2    4 am   BACKBONE|DICT|INTERRES
     7    4    5 1    
     8    4   75 1    
     9    5    6 1    
    10    5   35 1    
    11    5   76 1    
    12    6    7 1    
    13    6   77 1    
    14    6   78 1    
    15    7    8 1    
    16    8    9 1    
    17    8   79 1    
    18    8   80 1    
    19    9   10 ar   
    20    9   14 ar   
    21   10   11 ar   
    22   10   81 1    
    23   11   12 ar   
    24   11   71 1    
    25   12   13 ar   
    26   12   82 1    
    27   13   14 ar   
    28   13   15 1    
    29   14   83 1    
    30   15   16 1    
    31   15   84 1    
    32   15   85 1    
    33   16   17 1    
    34   17   18 1    
    35   17   86 1    
    36   17   87 1    
    37   18   19 1    
    38   18   37 1    
    39   18   88 1    
    40   19   20 am   BACKBONE|DICT|INTERRES
    41   19   89 1    
    42   20   21 2    
    43   20   22 1    
    44   22   23 1    
    45   22   24 1    
    46   22   90 1    
    47   23   91 1    
    48   23   92 1    
    49   23   93 1    
    50   24   25 am   BACKBONE|DICT|INTERRES
    51   24   94 1    
    52   25   26 2    
    53   25   27 1    
    54   27   28 1    
    55   27   29 1    
    56   27   95 1    
    57   28   96 1    
    58   28   97 1    
    59   28   98 1    
    60   29   30 am   BACKBONE|DICT|INTERRES
    61   29   99 1    
    62   30   31 2    
    63   30   32 1    
    64   32   33 1    
    65   32   34 1    
    66   32  100 1    
    67   33  101 1    
    68   33  102 1    
    69   33  103 1    
    70   34   35 am   BACKBONE|DICT|INTERRES
    71   34  104 1    
    72   35   36 2    
    73   37   38 2    
    74   37   39 am   BACKBONE|DICT|INTERRES
    75   39   40 1    
    76   39  105 1    
    77   40   41 1    
    78   40   42 1    
    79   40  106 1    
    80   41  107 1    
    81   41  108 1    
    82   41  109 1    
    83   42   43 2    
    84   42   44 am   BACKBONE|DICT|INTERRES
    85   44   45 1    
    86   44  110 1    
    87   45   46 1    
    88   45   47 1    
    89   45  111 1    
    90   46  112 1    
    91   46  113 1    
    92   46  114 1    
    93   47   48 2    
    94   47   49 am   BACKBONE|DICT|INTERRES
    95   49   50 1    
    96   49  115 1    
    97   50   51 1    
    98   50   52 1    
    99   50  116 1    
   100   51  117 1    
   101   51  118 1    
   102   51  119 1    
   103   52   53 2    
   104   52   54 am   BACKBONE|DICT|INTERRES
   105   54   55 1    
   106   54  120 1    
   107   55   56 1    
   108   55   57 1    
   109   55  121 1    
   110   56  122 1    
   111   56  123 1    
   112   56  124 1    
   113   57   58 2    
   114   57   59 am   BACKBONE|DICT|INTERRES
   115   59   60 1    
   116   59  125 1    
   117   60   61 1    
   118   60   62 1    
   119   60  126 1    
   120   61  127 1    
   121   61  128 1    
   122   61  129 1    
   123   62   63 2    
   124   62   64 am   BACKBONE|DICT|INTERRES
   125   64   65 1    
   126   64  130 1    
   127   65   66 1    
   128   65   69 1    
   129   65  131 1    
   130   66   67 am   BACKBONE|DICT|INTERRES
   131   66   68 2    
   132   67  132 1    
   133   67  133 1    
   134   69   70 1    
   135   69  134 1    
   136   69  135 1    
   137   70   71 1    
   138   71  136 1    
   139   71  137 1    
@<TRIPOS>SUBSTRUCTURE
     1 UNK         1 GROUP             0       ****    0 ROOT    
