@<TRIPOS>MOLECULE
3R136
137   139    1
SMALL
USER_CHARGES


@<TRIPOS>ATOM
      1 CA         25.9177   18.2666    2.9401 C.3       0 UNK        -0.1979 
      2 C          26.7965   18.7296    1.7874 C.2       0 UNK         0.4864 
      3 O          26.6765   18.2056    0.6785 O.2       0 UNK        -0.5359 
      4 N          27.6832   19.7008    2.0416 N.am      1 UNK        -0.4318 
      5 CA         28.5577   20.3158    1.0394 C.3       1 UNK         0.0824 
      6 C6         29.7174   21.0923    1.7171 C.3       12 UNK        -0.0944 
      7 S7         31.1408   21.3444    0.6037 S.3       12 UNK        -0.2672 
      8 C8         32.4643   21.7693    1.7828 C.3       12 UNK         0.0333 
      9 C9         32.3196   23.1807    2.3398 C.ar      12 UNK        -0.0807 
     10 C10        32.8653   24.2693    1.6516 C.ar      12 UNK        -0.0894 
     11 C11        32.7601   25.5627    2.1729 C.ar      12 UNK        -0.0804 
     12 C12        32.1116   25.7614    3.3952 C.ar      12 UNK        -0.0824 
     13 C13        31.5398   24.6860    4.0876 C.ar      12 UNK        -0.0762 
     14 C14        31.6585   23.3980    3.5529 C.ar      12 UNK        -0.0782 
     15 C15        30.8083   24.8603    5.4214 C.3       12 UNK         0.0230 
     16 S16        30.1702   26.5375    5.7764 S.3       12 UNK        -0.2608 
     17 C17        28.9153   26.7617    4.4709 C.3       12 UNK        -0.0989 
     18 CA         28.8909   28.2138    3.9189 C.3       5 UNK         0.0716 
     19 N          28.5166   28.2350    2.4978 N.am      5 UNK        -0.4135 
     20 C          28.4068   29.3111    1.7024 C.2       4 UNK         0.5031 
     21 O          28.4964   30.4702    2.1076 O.2       4 UNK        -0.5229 
     22 CA         28.1420   29.0495    0.2052 C.3       4 UNK         0.0329 
     23 CB         28.7418   30.1536   -0.6852 C.3       4 UNK        -0.2001 
     24 N          28.6905   27.7569   -0.2111 N.am      4 UNK        -0.4303 
     25 C          28.0069   26.6110   -0.3040 C.2       3 UNK         0.5044 
     26 O          26.7907   26.5088   -0.1312 O.2       3 UNK        -0.5152 
     27 CA         28.8624   25.3630   -0.5302 C.3       3 UNK         0.0319 
     28 CB         29.4833   24.9160    0.8021 C.3       3 UNK        -0.2001 
     29 N          28.0623   24.2512   -1.0296 N.am      3 UNK        -0.4354 
     30 C          28.3732   23.4830   -2.0774 C.2       2 UNK         0.4964 
     31 O          29.2890   23.7239   -2.8665 O.2       2 UNK        -0.5047 
     32 CA         27.5791   22.1704   -2.1946 C.3       2 UNK         0.0288 
     33 CB         27.6884   21.5309   -3.5917 C.3       2 UNK        -0.2113 
     34 N          28.0851   21.2266   -1.1947 N.am      2 UNK        -0.4145 
     35 C          27.7411   21.2293    0.1005 C.2       1 UNK         0.5006 
     36 O          26.8532   21.9488    0.5688 O.2       1 UNK        -0.5103 
     37 C          28.0284   29.1374    4.8099 C.2       5 UNK         0.5055 
     38 O          28.5421   29.7223    5.7642 O.2       5 UNK        -0.5220 
     39 N          26.7375   29.2664    4.4688 N.am      6 UNK        -0.4450 
     40 CA         25.7809   30.1497    5.1390 C.3       6 UNK         0.0367 
     41 CB         24.3554   29.7659    4.7100 C.3       6 UNK        -0.1929 
     42 C          26.0332   31.6473    4.8800 C.2       6 UNK         0.5070 
     43 O          25.6467   32.4661    5.7147 O.2       6 UNK        -0.5237 
     44 N          26.6579   31.9867    3.7432 N.am      7 UNK        -0.4739 
     45 CA         27.0455   33.3545    3.3959 C.3       7 UNK         0.0276 
     46 CB         27.0308   33.5350    1.8685 C.3       7 UNK        -0.1927 
     47 C          28.4247   33.6912    3.9786 C.2       7 UNK         0.5013 
     48 O          28.5810   34.7565    4.5773 O.2       7 UNK        -0.5193 
     49 N          29.3876   32.7745    3.8202 N.am      8 UNK        -0.4253 
     50 CA         30.7300   32.8690    4.3845 C.3       8 UNK         0.0242 
     51 CB         31.6143   33.7906    3.5224 C.3       8 UNK        -0.2000 
     52 C          31.3239   31.4627    4.4495 C.2       8 UNK         0.4948 
     53 O          31.2997   30.7576    3.4412 O.2       8 UNK        -0.5275 
     54 N          31.9042   31.0945    5.5995 N.am      9 UNK        -0.4246 
     55 CA         32.5080   29.7766    5.8433 C.3       9 UNK         0.0261 
     56 CB         32.8952   29.6601    7.3261 C.3       9 UNK        -0.1959 
     57 C          33.7127   29.4454    4.9407 C.2       9 UNK         0.5033 
     58 O          34.0174   28.2691    4.7493 O.2       9 UNK        -0.5390 
     59 N          34.3648   30.4798    4.3948 N.am      10 UNK        -0.4215 
     60 CA         35.4301   30.3674    3.3978 C.3       10 UNK         0.0240 
     61 CB         36.3375   31.6053    3.5086 C.3       10 UNK        -0.1982 
     62 C          34.9044   30.2118    1.9560 C.2       10 UNK         0.4970 
     63 O          35.7167   29.9715    1.0622 O.2       10 UNK        -0.4916 
     64 N          33.5893   30.3767    1.7401 N.am      11 UNK        -0.4279 
     65 CA         32.9105   30.3759    0.4315 C.3       11 UNK         0.1003 
     66 C          33.3104   31.5541   -0.5104 C.2       11 UNK         0.5709 
     67 N          33.9069   32.6294   -0.0081 N.am      11 UNK        -0.7358 
     68 O          33.0453   31.5172   -1.7098 O.2       11 UNK        -0.4999 
     69 C69        32.9430   28.9880   -0.2732 C.3       12 UNK        -0.0954 
     70 S70        32.0045   27.7257    0.6441 S.3       12 UNK        -0.2268 
     71 C71        33.3324   26.7523    1.4164 C.3       12 UNK         0.0203 
     72 H72        26.1383   18.8035    3.8626 H         1 UNK         0.0888 
     73 H73        24.8672   18.4262    2.6981 H         1 UNK         0.0888 
     74 H74        26.0680   17.2030    3.1231 H         1 UNK         0.0888 
     75 H75        27.7103   20.1161    2.9616 H         1 UNK         0.3017 
     76 H76        28.9854   19.5029    0.4478 H         1 UNK         0.0873 
     77 H77        29.3820   22.0560    2.1058 H         1 UNK         0.0745 
     78 H78        30.0796   20.5296    2.5791 H         1 UNK         0.0745 
     79 H79        32.4856   21.0376    2.5919 H         1 UNK         0.0705 
     80 H80        33.4244   21.6780    1.2726 H         1 UNK         0.0705 
     81 H81        33.3667   24.1085    0.7070 H         1 UNK         0.1334 
     82 H82        32.0455   26.7652    3.7905 H         1 UNK         0.1417 
     83 H83        31.2359   22.5569    4.0857 H         1 UNK         0.1562 
     84 H84        31.4929   24.5811    6.2231 H         1 UNK         0.0748 
     85 H85        29.9708   24.1628    5.4752 H         1 UNK         0.0748 
     86 H86        27.9392   26.4527    4.8509 H         1 UNK         0.0940 
     87 H87        29.1466   26.0598    3.6693 H         1 UNK         0.0940 
     88 H88        29.9080   28.6077    3.9457 H         1 UNK         0.0703 
     89 H89        28.3913   27.3347    2.0627 H         1 UNK         0.3081 
     90 H90        27.0590   29.0574    0.0667 H         1 UNK         0.0719 
     91 H91        29.8217   30.2313   -0.5588 H         1 UNK         0.0809 
     92 H92        28.5413   29.9639   -1.7396 H         1 UNK         0.0809 
     93 H93        28.3137   31.1283   -0.4480 H         1 UNK         0.0809 
     94 H94        29.6972   27.7238   -0.3154 H         1 UNK         0.2990 
     95 H95        29.6595   25.6174   -1.2325 H         1 UNK         0.0690 
     96 H96        30.1833   24.0991    0.6413 H         1 UNK         0.0788 
     97 H97        28.7285   24.5714    1.5101 H         1 UNK         0.0788 
     98 H98        30.0370   25.7196    1.2836 H         1 UNK         0.0788 
     99 H99        27.2762   23.9851   -0.4486 H         1 UNK         0.2993 
    100 H100       26.5254   22.3859   -2.0023 H         1 UNK         0.0949 
    101 H101       27.3333   22.2169   -4.3619 H         1 UNK         0.0767 
    102 H102       28.7169   21.2649   -3.8397 H         1 UNK         0.0767 
    103 H103       27.0837   20.6263   -3.6599 H         1 UNK         0.0767 
    104 H104       28.8562   20.6425   -1.4858 H         1 UNK         0.3013 
    105 H105       26.3985   28.7509    3.6698 H         1 UNK         0.3121 
    106 H106       25.8681   29.9863    6.2155 H         1 UNK         0.0774 
    107 H107       23.6157   30.3870    5.2174 H         1 UNK         0.0815 
    108 H108       24.2071   29.8952    3.6372 H         1 UNK         0.0815 
    109 H109       24.1299   28.7290    4.9599 H         1 UNK         0.0815 
    110 H110       27.0221   31.2545    3.1418 H         1 UNK         0.2987 
    111 H111       26.3216   34.0548    3.8193 H         1 UNK         0.0949 
    112 H112       27.7593   32.8942    1.3716 H         1 UNK         0.0806 
    113 H113       26.0486   33.3102    1.4526 H         1 UNK         0.0806 
    114 H114       27.2693   34.5646    1.5986 H         1 UNK         0.0806 
    115 H115       29.1889   31.9174    3.3067 H         1 UNK         0.3010 
    116 H116       30.6621   33.2743    5.3964 H         1 UNK         0.0829 
    117 H117       31.2224   34.8074    3.4941 H         1 UNK         0.0813 
    118 H118       32.6280   33.8475    3.9207 H         1 UNK         0.0813 
    119 H119       31.6848   33.4321    2.4943 H         1 UNK         0.0813 
    120 H120       31.8938   31.7361    6.3799 H         1 UNK         0.3038 
    121 H121       31.7419   29.0287    5.6334 H         1 UNK         0.0769 
    122 H122       33.6397   30.4048    7.6101 H         1 UNK         0.0811 
    123 H123       32.0270   29.7845    7.9736 H         1 UNK         0.0811 
    124 H124       33.3173   28.6774    7.5418 H         1 UNK         0.0811 
    125 H125       34.0565   31.4114    4.6309 H         1 UNK         0.3204 
    126 H126       36.0327   29.4837    3.6188 H         1 UNK         0.0748 
    127 H127       37.1718   31.5442    2.8081 H         1 UNK         0.0771 
    128 H128       35.7960   32.5266    3.2903 H         1 UNK         0.0771 
    129 H129       36.7647   31.6952    4.5076 H         1 UNK         0.0771 
    130 H130       32.9649   30.5306    2.5264 H         1 UNK         0.2980 
    131 H131       31.8671   30.5864    0.6674 H         1 UNK         0.0545 
    132 H132       34.1493   33.3895   -0.6235 H         1 UNK         0.3459 
    133 H133       34.1221   32.6844    0.9732 H         1 UNK         0.3459 
    134 H134       33.9663   28.6513   -0.4427 H         1 UNK         0.0616 
    135 H135       32.4813   29.0454   -1.2601 H         1 UNK         0.0616 
    136 H136       34.0318   26.4192    0.6483 H         1 UNK         0.0634 
    137 H137       33.8967   27.3848    2.1021 H         1 UNK         0.0634 
@<TRIPOS>BOND
     1    1    2 1    
     2    1   72 1    
     3    1   73 1    
     4    1   74 1    
     5    2    3 2    
     6    2    4 am   BACKBONE|DICT|INTERRES
     7    4    5 1    
     8    4   75 1    
     9    5    6 1    
    10    5   35 1    
    11    5   76 1    
    12    6    7 1    
    13    6   77 1    
    14    6   78 1    
    15    7    8 1    
    16    8    9 1    
    17    8   79 1    
    18    8   80 1    
    19    9   10 ar   
    20    9   14 ar   
    21   10   11 ar   
    22   10   81 1    
    23   11   12 ar   
    24   11   71 1    
    25   12   13 ar   
    26   12   82 1    
    27   13   14 ar   
    28   13   15 1    
    29   14   83 1    
    30   15   16 1    
    31   15   84 1    
    32   15   85 1    
    33   16   17 1    
    34   17   18 1    
    35   17   86 1    
    36   17   87 1    
    37   18   19 1    
    38   18   37 1    
    39   18   88 1    
    40   19   20 am   BACKBONE|DICT|INTERRES
    41   19   89 1    
    42   20   21 2    
    43   20   22 1    
    44   22   23 1    
    45   22   24 1    
    46   22   90 1    
    47   23   91 1    
    48   23   92 1    
    49   23   93 1    
    50   24   25 am   BACKBONE|DICT|INTERRES
    51   24   94 1    
    52   25   26 2    
    53   25   27 1    
    54   27   28 1    
    55   27   29 1    
    56   27   95 1    
    57   28   96 1    
    58   28   97 1    
    59   28   98 1    
    60   29   30 am   BACKBONE|DICT|INTERRES
    61   29   99 1    
    62   30   31 2    
    63   30   32 1    
    64   32   33 1    
    65   32   34 1    
    66   32  100 1    
    67   33  101 1    
    68   33  102 1    
    69   33  103 1    
    70   34   35 am   BACKBONE|DICT|INTERRES
    71   34  104 1    
    72   35   36 2    
    73   37   38 2    
    74   37   39 am   BACKBONE|DICT|INTERRES
    75   39   40 1    
    76   39  105 1    
    77   40   41 1    
    78   40   42 1    
    79   40  106 1    
    80   41  107 1    
    81   41  108 1    
    82   41  109 1    
    83   42   43 2    
    84   42   44 am   BACKBONE|DICT|INTERRES
    85   44   45 1    
    86   44  110 1    
    87   45   46 1    
    88   45   47 1    
    89   45  111 1    
    90   46  112 1    
    91   46  113 1    
    92   46  114 1    
    93   47   48 2    
    94   47   49 am   BACKBONE|DICT|INTERRES
    95   49   50 1    
    96   49  115 1    
    97   50   51 1    
    98   50   52 1    
    99   50  116 1    
   100   51  117 1    
   101   51  118 1    
   102   51  119 1    
   103   52   53 2    
   104   52   54 am   BACKBONE|DICT|INTERRES
   105   54   55 1    
   106   54  120 1    
   107   55   56 1    
   108   55   57 1    
   109   55  121 1    
   110   56  122 1    
   111   56  123 1    
   112   56  124 1    
   113   57   58 2    
   114   57   59 am   BACKBONE|DICT|INTERRES
   115   59   60 1    
   116   59  125 1    
   117   60   61 1    
   118   60   62 1    
   119   60  126 1    
   120   61  127 1    
   121   61  128 1    
   122   61  129 1    
   123   62   63 2    
   124   62   64 am   BACKBONE|DICT|INTERRES
   125   64   65 1    
   126   64  130 1    
   127   65   66 1    
   128   65   69 1    
   129   65  131 1    
   130   66   67 am   BACKBONE|DICT|INTERRES
   131   66   68 2    
   132   67  132 1    
   133   67  133 1    
   134   69   70 1    
   135   69  134 1    
   136   69  135 1    
   137   70   71 1    
   138   71  136 1    
   139   71  137 1    
@<TRIPOS>SUBSTRUCTURE
     1 UNK         1 GROUP             0       ****    0 ROOT    
