@<TRIPOS>MOLECULE
3R136
137   139    1
SMALL
USER_CHARGES


@<TRIPOS>ATOM
      1 CA         27.7213   21.1865    0.4782 C.3       0 UNK        -0.1979 
      2 C          28.1494   21.7503   -0.8688 C.2       0 UNK         0.4864 
      3 O          27.3936   21.6646   -1.8373 O.2       0 UNK        -0.5359 
      4 N          29.3535   22.3345   -0.9364 N.am      1 UNK        -0.4318 
      5 CA         29.9037   23.0043   -2.1239 C.3       1 UNK         0.0824 
      6 C6         31.4456   23.1543   -2.0339 C.3       12 UNK        -0.0944 
      7 S7         32.0045   24.0750   -0.5568 S.3       12 UNK        -0.2672 
      8 C8         32.6845   22.7476    0.4837 C.3       12 UNK         0.0333 
      9 C9         32.5029   23.0825    1.9548 C.ar      12 UNK        -0.0807 
     10 C10        33.4384   23.8803    2.6203 C.ar      12 UNK        -0.0894 
     11 C11        33.2646   24.2021    3.9703 C.ar      12 UNK        -0.0804 
     12 C12        32.1424   23.7176    4.6527 C.ar      12 UNK        -0.0824 
     13 C13        31.2010   22.9153    3.9973 C.ar      12 UNK        -0.0762 
     14 C14        31.3920   22.5970    2.6507 C.ar      12 UNK        -0.0782 
     15 C15        29.9890   22.3700    4.7457 C.3       12 UNK         0.0230 
     16 S16        28.4093   23.0445    4.1268 S.3       12 UNK        -0.2608 
     17 C17        28.5625   24.8041    4.5791 C.3       12 UNK        -0.0989 
     18 CA         28.0371   25.7410    3.4535 C.3       5 UNK         0.0716 
     19 N          26.5833   25.6800    3.2688 N.am      5 UNK        -0.4135 
     20 C          25.6481   26.0823    4.1451 C.2       4 UNK         0.5031 
     21 O          25.9056   26.4793    5.2829 O.2       4 UNK        -0.5229 
     22 CA         24.1765   26.0594    3.6705 C.3       4 UNK         0.0329 
     23 CB         23.3274   27.1550    4.3506 C.3       4 UNK        -0.2001 
     24 N          24.0102   26.1230    2.2110 N.am      4 UNK        -0.4303 
     25 C          24.4750   27.0734    1.3874 C.2       3 UNK         0.5044 
     26 O          25.1159   28.0611    1.7527 O.2       3 UNK        -0.5152 
     27 CA         24.2498   26.8360   -0.1140 C.3       3 UNK         0.0319 
     28 CB         23.3380   27.9232   -0.7054 C.3       3 UNK        -0.2001 
     29 N          25.5149   26.8056   -0.8539 N.am      3 UNK        -0.4354 
     30 C          26.5481   25.9930   -0.5923 C.2       2 UNK         0.4964 
     31 O          26.5621   25.1534    0.3152 O.2       2 UNK        -0.5047 
     32 CA         27.7868   26.1713   -1.4748 C.3       2 UNK         0.0288 
     33 CB         28.6500   27.3395   -0.9717 C.3       2 UNK        -0.2113 
     34 N          28.5643   24.9415   -1.4119 N.am      2 UNK        -0.4145 
     35 C          29.2166   24.3577   -2.4236 C.2       1 UNK         0.5006 
     36 O          29.2902   24.8366   -3.5571 O.2       1 UNK        -0.5103 
     37 C          28.5607   27.1900    3.5884 C.2       5 UNK         0.5055 
     38 O          29.6084   27.3944    4.1958 O.2       5 UNK        -0.5220 
     39 N          27.8900   28.1831    2.9834 N.am      6 UNK        -0.4450 
     40 CA         28.3277   29.5873    2.9710 C.3       6 UNK         0.0367 
     41 CB         27.0996   30.4922    2.7645 C.3       6 UNK        -0.1929 
     42 C          29.4401   29.8667    1.9337 C.2       6 UNK         0.5070 
     43 O          29.4260   30.9172    1.2883 O.2       6 UNK        -0.5237 
     44 N          30.3785   28.9232    1.7694 N.am      7 UNK        -0.4739 
     45 CA         31.4467   28.9418    0.7679 C.3       7 UNK         0.0276 
     46 CB         32.2145   27.6121    0.8009 C.3       7 UNK        -0.1927 
     47 C          32.3836   30.1394    0.9708 C.2       7 UNK         0.5013 
     48 O          33.0000   30.2585    2.0348 O.2       7 UNK        -0.5193 
     49 N          32.3931   31.0393   -0.0257 N.am      8 UNK        -0.4253 
     50 CA         33.0922   32.3331   -0.0711 C.3       8 UNK         0.0242 
     51 CB         34.6170   32.1048   -0.1502 C.3       8 UNK        -0.2000 
     52 C          32.7188   33.3017    1.0734 C.2       8 UNK         0.4948 
     53 O          33.4654   34.2489    1.3236 O.2       8 UNK        -0.5275 
     54 N          31.6124   33.0186    1.7834 N.am      9 UNK        -0.4246 
     55 CA         31.2257   33.5708    3.0891 C.3       9 UNK         0.0261 
     56 CB         30.8453   35.0614    2.9674 C.3       9 UNK        -0.1959 
     57 C          32.2656   33.3136    4.2073 C.2       9 UNK         0.5033 
     58 O          32.2186   33.9861    5.2387 O.2       9 UNK        -0.5390 
     59 N          33.1776   32.3529    3.9966 N.am      10 UNK        -0.4215 
     60 CA         34.2737   32.0093    4.9011 C.3       10 UNK         0.0240 
     61 CB         35.5492   31.7585    4.0788 C.3       10 UNK        -0.1982 
     62 C          33.9235   30.7777    5.7427 C.2       10 UNK         0.4970 
     63 O          34.1812   30.7801    6.9469 O.2       10 UNK        -0.4916 
     64 N          33.3271   29.7615    5.1054 N.am      11 UNK        -0.4279 
     65 CA         32.8331   28.5452    5.7717 C.3       11 UNK         0.1003 
     66 C          31.5225   28.7503    6.5899 C.2       11 UNK         0.5709 
     67 N          30.8283   29.8775    6.4725 N.am      11 UNK        -0.7358 
     68 O          31.1477   27.8806    7.3729 O.2       11 UNK        -0.4999 
     69 C69        32.6966   27.3725    4.7700 C.3       12 UNK        -0.0954 
     70 S70        34.3028   26.7859    4.1396 S.3       12 UNK        -0.2268 
     71 C71        34.3044   25.0502    4.6949 C.3       12 UNK         0.0203 
     72 H72        26.8424   21.7184    0.8425 H         1 UNK         0.0888 
     73 H73        27.4667   20.1315    0.3811 H         1 UNK         0.0888 
     74 H74        28.5046   21.2777    1.2298 H         1 UNK         0.0888 
     75 H75        29.9334   22.3861   -0.1124 H         1 UNK         0.3017 
     76 H76        29.6929   22.3650   -2.9841 H         1 UNK         0.0873 
     77 H77        31.9120   22.1682   -2.0476 H         1 UNK         0.0745 
     78 H78        31.8312   23.6634   -2.9194 H         1 UNK         0.0745 
     79 H79        32.1960   21.7984    0.2583 H         1 UNK         0.0705 
     80 H80        33.7418   22.6120    0.2512 H         1 UNK         0.0705 
     81 H81        34.2995   24.2585    2.0861 H         1 UNK         0.1334 
     82 H82        32.0048   23.9615    5.6973 H         1 UNK         0.1417 
     83 H83        30.6682   21.9726    2.1474 H         1 UNK         0.1562 
     84 H84        30.0672   22.5735    5.8149 H         1 UNK         0.0748 
     85 H85        29.9694   21.2841    4.6442 H         1 UNK         0.0748 
     86 H86        29.6130   25.0036    4.7914 H         1 UNK         0.0940 
     87 H87        28.0397   24.9797    5.5199 H         1 UNK         0.0940 
     88 H88        28.4652   25.3900    2.5130 H         1 UNK         0.0703 
     89 H89        26.2858   25.3785    2.3465 H         1 UNK         0.3081 
     90 H90        23.7789   25.0920    3.9807 H         1 UNK         0.0719 
     91 H91        23.7112   28.1531    4.1364 H         1 UNK         0.0809 
     92 H92        22.2897   27.1164    4.0195 H         1 UNK         0.0809 
     93 H93        23.3229   27.0343    5.4346 H         1 UNK         0.0809 
     94 H94        23.5311   25.3342    1.7978 H         1 UNK         0.2990 
     95 H95        23.7644   25.8679   -0.2545 H         1 UNK         0.0690 
     96 H96        23.1235   27.7347   -1.7575 H         1 UNK         0.0788 
     97 H97        23.7876   28.9140   -0.6254 H         1 UNK         0.0788 
     98 H98        22.3815   27.9570   -0.1819 H         1 UNK         0.0788 
     99 H99        25.6122   27.4862   -1.5933 H         1 UNK         0.2993 
    100 H100       27.4628   26.3590   -2.5010 H         1 UNK         0.0949 
    101 H101       28.0999   28.2812   -0.9944 H         1 UNK         0.0767 
    102 H102       28.9771   27.1755    0.0553 H         1 UNK         0.0767 
    103 H103       29.5391   27.4659   -1.5896 H         1 UNK         0.0767 
    104 H104       28.4833   24.4439   -0.5353 H         1 UNK         0.3013 
    105 H105       27.0210   27.9794    2.4983 H         1 UNK         0.3121 
    106 H106       28.7474   29.8289    3.9500 H         1 UNK         0.0774 
    107 H107       26.6606   30.3518    1.7759 H         1 UNK         0.0815 
    108 H108       27.3663   31.5458    2.8573 H         1 UNK         0.0815 
    109 H109       26.3263   30.2881    3.5053 H         1 UNK         0.0815 
    110 H110       30.3642   28.1415    2.4136 H         1 UNK         0.2987 
    111 H111       30.9694   29.0261   -0.2102 H         1 UNK         0.0949 
    112 H112       32.7866   27.4928    1.7190 H         1 UNK         0.0806 
    113 H113       31.5402   26.7603    0.7143 H         1 UNK         0.0806 
    114 H114       32.9215   27.5509   -0.0271 H         1 UNK         0.0806 
    115 H115       31.8055   30.8509   -0.8266 H         1 UNK         0.3010 
    116 H116       32.7777   32.8219   -0.9944 H         1 UNK         0.0829 
    117 H117       35.0096   31.6767    0.7729 H         1 UNK         0.0813 
    118 H118       34.8762   31.4325   -0.9679 H         1 UNK         0.0813 
    119 H119       35.1479   33.0415   -0.3248 H         1 UNK         0.0813 
    120 H120       31.0384   32.2425    1.4663 H         1 UNK         0.3038 
    121 H121       30.3285   33.0260    3.3866 H         1 UNK         0.0769 
    122 H122       31.7120   35.6844    2.7447 H         1 UNK         0.0811 
    123 H123       30.4110   35.4322    3.8965 H         1 UNK         0.0811 
    124 H124       30.1069   35.2194    2.1814 H         1 UNK         0.0811 
    125 H125       33.1131   31.7995    3.1453 H         1 UNK         0.3204 
    126 H126       34.4696   32.8405    5.5820 H         1 UNK         0.0748 
    127 H127       36.3914   31.5163    4.7285 H         1 UNK         0.0771 
    128 H128       35.4270   30.9304    3.3790 H         1 UNK         0.0771 
    129 H129       35.8263   32.6419    3.5030 H         1 UNK         0.0771 
    130 H130       33.1744   29.8200    4.1052 H         1 UNK         0.2980 
    131 H131       33.5821   28.2500    6.5093 H         1 UNK         0.0545 
    132 H132       29.9899   29.9955    7.0180 H         1 UNK         0.3459 
    133 H133       31.1415   30.6076    5.8560 H         1 UNK         0.3459 
    134 H134       32.1654   26.5346    5.2234 H         1 UNK         0.0616 
    135 H135       32.0976   27.6818    3.9151 H         1 UNK         0.0616 
    136 H136       35.2942   24.6282    4.5160 H         1 UNK         0.0634 
    137 H137       34.1508   25.0199    5.7748 H         1 UNK         0.0634 
@<TRIPOS>BOND
     1    1    2 1    
     2    1   72 1    
     3    1   73 1    
     4    1   74 1    
     5    2    3 2    
     6    2    4 am   BACKBONE|DICT|INTERRES
     7    4    5 1    
     8    4   75 1    
     9    5    6 1    
    10    5   35 1    
    11    5   76 1    
    12    6    7 1    
    13    6   77 1    
    14    6   78 1    
    15    7    8 1    
    16    8    9 1    
    17    8   79 1    
    18    8   80 1    
    19    9   10 ar   
    20    9   14 ar   
    21   10   11 ar   
    22   10   81 1    
    23   11   12 ar   
    24   11   71 1    
    25   12   13 ar   
    26   12   82 1    
    27   13   14 ar   
    28   13   15 1    
    29   14   83 1    
    30   15   16 1    
    31   15   84 1    
    32   15   85 1    
    33   16   17 1    
    34   17   18 1    
    35   17   86 1    
    36   17   87 1    
    37   18   19 1    
    38   18   37 1    
    39   18   88 1    
    40   19   20 am   BACKBONE|DICT|INTERRES
    41   19   89 1    
    42   20   21 2    
    43   20   22 1    
    44   22   23 1    
    45   22   24 1    
    46   22   90 1    
    47   23   91 1    
    48   23   92 1    
    49   23   93 1    
    50   24   25 am   BACKBONE|DICT|INTERRES
    51   24   94 1    
    52   25   26 2    
    53   25   27 1    
    54   27   28 1    
    55   27   29 1    
    56   27   95 1    
    57   28   96 1    
    58   28   97 1    
    59   28   98 1    
    60   29   30 am   BACKBONE|DICT|INTERRES
    61   29   99 1    
    62   30   31 2    
    63   30   32 1    
    64   32   33 1    
    65   32   34 1    
    66   32  100 1    
    67   33  101 1    
    68   33  102 1    
    69   33  103 1    
    70   34   35 am   BACKBONE|DICT|INTERRES
    71   34  104 1    
    72   35   36 2    
    73   37   38 2    
    74   37   39 am   BACKBONE|DICT|INTERRES
    75   39   40 1    
    76   39  105 1    
    77   40   41 1    
    78   40   42 1    
    79   40  106 1    
    80   41  107 1    
    81   41  108 1    
    82   41  109 1    
    83   42   43 2    
    84   42   44 am   BACKBONE|DICT|INTERRES
    85   44   45 1    
    86   44  110 1    
    87   45   46 1    
    88   45   47 1    
    89   45  111 1    
    90   46  112 1    
    91   46  113 1    
    92   46  114 1    
    93   47   48 2    
    94   47   49 am   BACKBONE|DICT|INTERRES
    95   49   50 1    
    96   49  115 1    
    97   50   51 1    
    98   50   52 1    
    99   50  116 1    
   100   51  117 1    
   101   51  118 1    
   102   51  119 1    
   103   52   53 2    
   104   52   54 am   BACKBONE|DICT|INTERRES
   105   54   55 1    
   106   54  120 1    
   107   55   56 1    
   108   55   57 1    
   109   55  121 1    
   110   56  122 1    
   111   56  123 1    
   112   56  124 1    
   113   57   58 2    
   114   57   59 am   BACKBONE|DICT|INTERRES
   115   59   60 1    
   116   59  125 1    
   117   60   61 1    
   118   60   62 1    
   119   60  126 1    
   120   61  127 1    
   121   61  128 1    
   122   61  129 1    
   123   62   63 2    
   124   62   64 am   BACKBONE|DICT|INTERRES
   125   64   65 1    
   126   64  130 1    
   127   65   66 1    
   128   65   69 1    
   129   65  131 1    
   130   66   67 am   BACKBONE|DICT|INTERRES
   131   66   68 2    
   132   67  132 1    
   133   67  133 1    
   134   69   70 1    
   135   69  134 1    
   136   69  135 1    
   137   70   71 1    
   138   71  136 1    
   139   71  137 1    
@<TRIPOS>SUBSTRUCTURE
     1 UNK         1 GROUP             0       ****    0 ROOT    
