@<TRIPOS>MOLECULE
3R136
137   139    1
SMALL
USER_CHARGES


@<TRIPOS>ATOM
      1 CA         28.4439   25.0528    6.8415 C.3       0 UNK        -0.1979 
      2 C          28.1571   24.3137    5.5432 C.2       0 UNK         0.4864 
      3 O          27.7502   23.1509    5.5780 O.2       0 UNK        -0.5359 
      4 N          28.3668   24.9815    4.4044 N.am      1 UNK        -0.4318 
      5 CA         28.0491   24.4802    3.0666 C.3       1 UNK         0.0824 
      6 C6         29.0284   25.0401    2.0039 C.3       12 UNK        -0.0944 
      7 S7         30.6898   24.3027    2.1811 S.3       12 UNK        -0.2672 
      8 C8         31.7098   25.7433    2.6508 C.3       12 UNK         0.0333 
      9 C9         32.1416   26.6619    1.5034 C.ar      12 UNK        -0.0807 
     10 C10        33.1589   27.5900    1.7472 C.ar      12 UNK        -0.0894 
     11 C11        33.5759   28.4794    0.7523 C.ar      12 UNK        -0.0804 
     12 C12        32.9620   28.4473   -0.5024 C.ar      12 UNK        -0.0824 
     13 C13        31.9393   27.5316   -0.7641 C.ar      12 UNK        -0.0762 
     14 C14        31.5472   26.6336    0.2341 C.ar      12 UNK        -0.0782 
     15 C15        31.2401   27.5221   -2.1186 C.3       12 UNK         0.0230 
     16 S16        30.1524   28.9695   -2.3437 S.3       12 UNK        -0.2608 
     17 C17        28.9588   28.7715   -0.9775 C.3       12 UNK        -0.0989 
     18 CA         27.5065   28.4187   -1.4008 C.3       5 UNK         0.0716 
     19 N          27.4081   27.1713   -2.1522 N.am      5 UNK        -0.4135 
     20 C          27.3632   27.0351   -3.4804 C.2       4 UNK         0.5031 
     21 O          27.4811   27.9618   -4.2831 O.2       4 UNK        -0.5229 
     22 CA         27.1110   25.6095   -3.9956 C.3       4 UNK         0.0329 
     23 CB         28.3737   24.7430   -3.8527 C.3       4 UNK        -0.2001 
     24 N          25.9901   24.9654   -3.3055 N.am      4 UNK        -0.4303 
     25 C          24.7028   25.3019   -3.4562 C.2       3 UNK         0.5044 
     26 O          24.3113   26.1839   -4.2212 O.2       3 UNK        -0.5152 
     27 CA         23.6684   24.5249   -2.6219 C.3       3 UNK         0.0319 
     28 CB         23.5455   23.0612   -3.0922 C.3       3 UNK        -0.2001 
     29 N          23.8673   24.6153   -1.1681 N.am      3 UNK        -0.4354 
     30 C          24.8729   24.1277   -0.4288 C.2       2 UNK         0.4964 
     31 O          25.8399   23.5105   -0.8875 O.2       2 UNK        -0.5047 
     32 CA         24.7644   24.3551    1.0839 C.3       2 UNK         0.0288 
     33 CB         23.7418   23.3977    1.7223 C.3       2 UNK        -0.2113 
     34 N          26.0770   24.1335    1.6793 N.am      2 UNK        -0.4145 
     35 C          26.5863   24.8130    2.7115 C.2       1 UNK         0.5006 
     36 O          25.9580   25.6624    3.3518 O.2       1 UNK        -0.5103 
     37 C          26.6534   28.2232   -0.1362 C.2       5 UNK         0.5055 
     38 O          26.3933   27.0802    0.2453 O.2       5 UNK        -0.5220 
     39 N          26.3130   29.3284    0.5360 N.am      6 UNK        -0.4450 
     40 CA         25.7415   29.3386    1.8901 C.3       6 UNK         0.0367 
     41 CB         24.5652   30.3318    1.9248 C.3       6 UNK        -0.1929 
     42 C          26.8103   29.6836    2.9520 C.2       6 UNK         0.5070 
     43 O          26.4619   30.0886    4.0620 O.2       6 UNK        -0.5237 
     44 N          28.0919   29.5660    2.5794 N.am      7 UNK        -0.4739 
     45 CA         29.2616   29.8762    3.4008 C.3       7 UNK         0.0276 
     46 CB         30.4768   30.0177    2.4708 C.3       7 UNK        -0.1927 
     47 C          29.5297   28.8163    4.4824 C.2       7 UNK         0.5013 
     48 O          29.0047   27.7033    4.4107 O.2       7 UNK        -0.5193 
     49 N          30.3787   29.1752    5.4491 N.am      8 UNK        -0.4253 
     50 CA         30.8145   28.3292    6.5558 C.3       8 UNK         0.0242 
     51 CB         29.8907   28.5639    7.7660 C.3       8 UNK        -0.2000 
     52 C          32.2730   28.6618    6.8967 C.2       8 UNK         0.4948 
     53 O          32.8225   29.6325    6.3660 O.2       8 UNK        -0.5275 
     54 N          32.8719   27.8413    7.7744 N.am      9 UNK        -0.4246 
     55 CA         34.2191   27.9854    8.3525 C.3       9 UNK         0.0261 
     56 CB         34.2413   29.1635    9.3500 C.3       9 UNK        -0.1959 
     57 C          35.3489   28.0861    7.3062 C.2       9 UNK         0.5033 
     58 O          36.3350   28.7912    7.5328 O.2       9 UNK        -0.5390 
     59 N          35.1591   27.4178    6.1570 N.am      10 UNK        -0.4215 
     60 CA         36.0151   27.4443    4.9621 C.3       10 UNK         0.0240 
     61 CB         37.3277   26.6762    5.2275 C.3       10 UNK        -0.1982 
     62 C          36.2638   28.8643    4.4037 C.2       10 UNK         0.4970 
     63 O          37.3069   29.0967    3.7906 O.2       10 UNK        -0.4916 
     64 N          35.3140   29.7848    4.6339 N.am      11 UNK        -0.4279 
     65 CA         35.4097   31.2239    4.3337 C.3       11 UNK         0.1003 
     66 C          36.4883   31.9815    5.1705 C.2       11 UNK         0.5709 
     67 N          36.9866   31.4320    6.2735 N.am      11 UNK        -0.7358 
     68 O          36.8598   33.1051    4.8386 O.2       11 UNK        -0.4999 
     69 C69        35.4848   31.5378    2.8085 C.3       12 UNK        -0.0954 
     70 S70        34.0186   30.9374    1.9066 S.3       12 UNK        -0.2268 
     71 C71        34.6815   29.4795    1.0469 C.3       12 UNK         0.0203 
     72 H72        29.3786   24.7018    7.2774 H         1 UNK         0.0888 
     73 H73        28.5203   26.1268    6.6783 H         1 UNK         0.0888 
     74 H74        27.6431   24.8801    7.5600 H         1 UNK         0.0888 
     75 H75        28.6312   25.9667    4.4403 H         1 UNK         0.3017 
     76 H76        28.1339   23.3909    3.0669 H         1 UNK         0.0873 
     77 H77        29.0831   26.1293    2.0612 H         1 UNK         0.0745 
     78 H78        28.6862   24.8095    0.9932 H         1 UNK         0.0745 
     79 H79        32.6042   25.3589    3.1433 H         1 UNK         0.0705 
     80 H80        31.1781   26.3302    3.4003 H         1 UNK         0.0705 
     81 H81        33.6209   27.6339    2.7234 H         1 UNK         0.1334 
     82 H82        33.2658   29.1454   -1.2706 H         1 UNK         0.1417 
     83 H83        30.7573   25.9312    0.0150 H         1 UNK         0.1562 
     84 H84        30.6515   26.6125   -2.2485 H         1 UNK         0.0748 
     85 H85        31.9893   27.5163   -2.9115 H         1 UNK         0.0748 
     86 H86        28.9706   29.7164   -0.4315 H         1 UNK         0.0940 
     87 H87        29.3293   28.0256   -0.2756 H         1 UNK         0.0940 
     88 H88        27.0781   29.2346   -1.9869 H         1 UNK         0.0703 
     89 H89        27.2048   26.3704   -1.5674 H         1 UNK         0.3081 
     90 H90        26.8643   25.6764   -5.0575 H         1 UNK         0.0719 
     91 H91        28.6526   24.5969   -2.8083 H         1 UNK         0.0809 
     92 H92        28.2303   23.7596   -4.3006 H         1 UNK         0.0809 
     93 H93        29.2234   25.2067   -4.3560 H         1 UNK         0.0809 
     94 H94        26.2043   24.2552   -2.6102 H         1 UNK         0.2990 
     95 H95        22.7036   24.9993   -2.8096 H         1 UNK         0.0690 
     96 H96        22.7460   22.5425   -2.5631 H         1 UNK         0.0788 
     97 H97        24.4663   22.4977   -2.9394 H         1 UNK         0.0788 
     98 H98        23.3122   23.0143   -4.1567 H         1 UNK         0.0788 
     99 H99        23.1439   25.1260   -0.6804 H         1 UNK         0.2993 
    100 H100       24.4561   25.3902    1.2493 H         1 UNK         0.0949 
    101 H101       23.6676   23.5601    2.7978 H         1 UNK         0.0767 
    102 H102       22.7456   23.5467    1.3041 H         1 UNK         0.0767 
    103 H103       24.0129   22.3537    1.5598 H         1 UNK         0.0767 
    104 H104       26.6650   23.5023    1.1492 H         1 UNK         0.3013 
    105 H105       26.5652   30.2312    0.1563 H         1 UNK         0.3121 
    106 H106       25.3539   28.3499    2.1467 H         1 UNK         0.0774 
    107 H107       24.0686   30.3191    2.8959 H         1 UNK         0.0815 
    108 H108       24.8947   31.3548    1.7398 H         1 UNK         0.0815 
    109 H109       23.8128   30.0802    1.1773 H         1 UNK         0.0815 
    110 H110       28.2778   29.1692    1.6735 H         1 UNK         0.2987 
    111 H111       29.0865   30.8310    3.9018 H         1 UNK         0.0949 
    112 H112       31.3838   30.2333    3.0358 H         1 UNK         0.0806 
    113 H113       30.6586   29.1055    1.9030 H         1 UNK         0.0806 
    114 H114       30.3431   30.8322    1.7587 H         1 UNK         0.0806 
    115 H115       30.8570   30.0661    5.3975 H         1 UNK         0.3010 
    116 H116       30.7724   27.2800    6.2554 H         1 UNK         0.0829 
    117 H117       28.8453   28.3935    7.5086 H         1 UNK         0.0813 
    118 H118       30.1328   27.8910    8.5893 H         1 UNK         0.0813 
    119 H119       29.9746   29.5844    8.1421 H         1 UNK         0.0813 
    120 H120       32.3366   27.0607    8.1302 H         1 UNK         0.3038 
    121 H121       34.4136   27.0714    8.9158 H         1 UNK         0.0769 
    122 H122       35.1902   29.2084    9.8862 H         1 UNK         0.0811 
    123 H123       33.4543   29.0662   10.0978 H         1 UNK         0.0811 
    124 H124       34.1075   30.1209    8.8447 H         1 UNK         0.0811 
    125 H125       34.3107   26.8752    6.0761 H         1 UNK         0.3204 
    126 H126       35.4724   26.9070    4.1834 H         1 UNK         0.0748 
    127 H127       37.9124   26.5671    4.3132 H         1 UNK         0.0771 
    128 H128       37.9554   27.1905    5.9561 H         1 UNK         0.0771 
    129 H129       37.1310   25.6724    5.6041 H         1 UNK         0.0771 
    130 H130       34.4985   29.5242    5.1781 H         1 UNK         0.2980 
    131 H131       34.4684   31.6410    4.6930 H         1 UNK         0.0545 
    132 H132       37.6726   31.9420    6.8061 H         1 UNK         0.3459 
    133 H133       36.6943   30.5106    6.5833 H         1 UNK         0.3459 
    134 H134       35.5268   32.6156    2.6439 H         1 UNK         0.0616 
    135 H135       36.3949   31.1338    2.3636 H         1 UNK         0.0616 
    136 H136       35.4491   28.9981    1.6517 H         1 UNK         0.0634 
    137 H137       35.1724   29.7987    0.1264 H         1 UNK         0.0634 
@<TRIPOS>BOND
     1    1    2 1    
     2    1   72 1    
     3    1   73 1    
     4    1   74 1    
     5    2    3 2    
     6    2    4 am   BACKBONE|DICT|INTERRES
     7    4    5 1    
     8    4   75 1    
     9    5    6 1    
    10    5   35 1    
    11    5   76 1    
    12    6    7 1    
    13    6   77 1    
    14    6   78 1    
    15    7    8 1    
    16    8    9 1    
    17    8   79 1    
    18    8   80 1    
    19    9   10 ar   
    20    9   14 ar   
    21   10   11 ar   
    22   10   81 1    
    23   11   12 ar   
    24   11   71 1    
    25   12   13 ar   
    26   12   82 1    
    27   13   14 ar   
    28   13   15 1    
    29   14   83 1    
    30   15   16 1    
    31   15   84 1    
    32   15   85 1    
    33   16   17 1    
    34   17   18 1    
    35   17   86 1    
    36   17   87 1    
    37   18   19 1    
    38   18   37 1    
    39   18   88 1    
    40   19   20 am   BACKBONE|DICT|INTERRES
    41   19   89 1    
    42   20   21 2    
    43   20   22 1    
    44   22   23 1    
    45   22   24 1    
    46   22   90 1    
    47   23   91 1    
    48   23   92 1    
    49   23   93 1    
    50   24   25 am   BACKBONE|DICT|INTERRES
    51   24   94 1    
    52   25   26 2    
    53   25   27 1    
    54   27   28 1    
    55   27   29 1    
    56   27   95 1    
    57   28   96 1    
    58   28   97 1    
    59   28   98 1    
    60   29   30 am   BACKBONE|DICT|INTERRES
    61   29   99 1    
    62   30   31 2    
    63   30   32 1    
    64   32   33 1    
    65   32   34 1    
    66   32  100 1    
    67   33  101 1    
    68   33  102 1    
    69   33  103 1    
    70   34   35 am   BACKBONE|DICT|INTERRES
    71   34  104 1    
    72   35   36 2    
    73   37   38 2    
    74   37   39 am   BACKBONE|DICT|INTERRES
    75   39   40 1    
    76   39  105 1    
    77   40   41 1    
    78   40   42 1    
    79   40  106 1    
    80   41  107 1    
    81   41  108 1    
    82   41  109 1    
    83   42   43 2    
    84   42   44 am   BACKBONE|DICT|INTERRES
    85   44   45 1    
    86   44  110 1    
    87   45   46 1    
    88   45   47 1    
    89   45  111 1    
    90   46  112 1    
    91   46  113 1    
    92   46  114 1    
    93   47   48 2    
    94   47   49 am   BACKBONE|DICT|INTERRES
    95   49   50 1    
    96   49  115 1    
    97   50   51 1    
    98   50   52 1    
    99   50  116 1    
   100   51  117 1    
   101   51  118 1    
   102   51  119 1    
   103   52   53 2    
   104   52   54 am   BACKBONE|DICT|INTERRES
   105   54   55 1    
   106   54  120 1    
   107   55   56 1    
   108   55   57 1    
   109   55  121 1    
   110   56  122 1    
   111   56  123 1    
   112   56  124 1    
   113   57   58 2    
   114   57   59 am   BACKBONE|DICT|INTERRES
   115   59   60 1    
   116   59  125 1    
   117   60   61 1    
   118   60   62 1    
   119   60  126 1    
   120   61  127 1    
   121   61  128 1    
   122   61  129 1    
   123   62   63 2    
   124   62   64 am   BACKBONE|DICT|INTERRES
   125   64   65 1    
   126   64  130 1    
   127   65   66 1    
   128   65   69 1    
   129   65  131 1    
   130   66   67 am   BACKBONE|DICT|INTERRES
   131   66   68 2    
   132   67  132 1    
   133   67  133 1    
   134   69   70 1    
   135   69  134 1    
   136   69  135 1    
   137   70   71 1    
   138   71  136 1    
   139   71  137 1    
@<TRIPOS>SUBSTRUCTURE
     1 UNK         1 GROUP             0       ****    0 ROOT    
