@<TRIPOS>MOLECULE
3R136
137   139    1
SMALL
USER_CHARGES


@<TRIPOS>ATOM
      1 CA         28.0013   17.3009   -0.1623 C.3       0 UNK        -0.1979 
      2 C          27.9685   18.7744   -0.5409 C.2       0 UNK         0.4864 
      3 O          27.6901   19.1029   -1.6956 O.2       0 UNK        -0.5359 
      4 N          28.2595   19.6617    0.4188 N.am      1 UNK        -0.4318 
      5 CA         28.2314   21.1179    0.2511 C.3       1 UNK         0.0824 
      6 C6         28.9112   21.8442    1.4377 C.3       12 UNK        -0.0944 
      7 S7         30.7142   21.5725    1.4646 S.3       12 UNK        -0.2672 
      8 C8         31.3347   23.2117    0.9661 C.3       12 UNK         0.0333 
      9 C9         31.6602   24.0968    2.1637 C.ar      12 UNK        -0.0807 
     10 C10        32.9921   24.4057    2.4578 C.ar      12 UNK        -0.0894 
     11 C11        33.3109   25.2496    3.5256 C.ar      12 UNK        -0.0804 
     12 C12        32.2819   25.7800    4.3073 C.ar      12 UNK        -0.0824 
     13 C13        30.9448   25.4902    4.0228 C.ar      12 UNK        -0.0762 
     14 C14        30.6421   24.6331    2.9601 C.ar      12 UNK        -0.0782 
     15 C15        29.8425   26.1155    4.8731 C.3       12 UNK         0.0230 
     16 S16        28.5098   26.9264    3.9167 S.3       12 UNK        -0.2608 
     17 C17        29.3963   27.8375    2.6040 C.3       12 UNK        -0.0989 
     18 CA         29.0169   27.2708    1.2034 C.3       5 UNK         0.0716 
     19 N          27.6322   27.5747    0.8177 N.am      5 UNK        -0.4135 
     20 C          27.0812   28.7853    0.6251 C.2       4 UNK         0.5031 
     21 O          27.6768   29.8523    0.7809 O.2       4 UNK        -0.5229 
     22 CA         25.6067   28.8317    0.1737 C.3       4 UNK         0.0329 
     23 CB         25.5190   29.1064   -1.3368 C.3       4 UNK        -0.2001 
     24 N          24.8585   27.6103    0.4773 N.am      4 UNK        -0.4303 
     25 C          24.4951   27.2168    1.7061 C.2       3 UNK         0.5044 
     26 O          24.6520   27.9018    2.7170 O.2       3 UNK        -0.5152 
     27 CA         23.8614   25.8168    1.8376 C.3       3 UNK         0.0319 
     28 CB         22.3382   25.9328    2.0129 C.3       3 UNK        -0.2001 
     29 N          24.1469   24.8968    0.7265 N.am      3 UNK        -0.4354 
     30 C          25.3659   24.4786    0.3589 C.2       2 UNK         0.4964 
     31 O          26.4147   24.8834    0.8682 O.2       2 UNK        -0.5047 
     32 CA         25.4256   23.4960   -0.8214 C.3       2 UNK         0.0288 
     33 CB         25.4288   24.2645   -2.1537 C.3       2 UNK        -0.2113 
     34 N          26.6387   22.6834   -0.7386 N.am      2 UNK        -0.4145 
     35 C          26.7904   21.6386    0.0853 C.2       1 UNK         0.5006 
     36 O          25.8720   21.1364    0.7401 O.2       1 UNK        -0.5103 
     37 C          30.0423   27.6225    0.1010 C.2       5 UNK         0.5055 
     38 O          29.6838   28.1515   -0.9542 O.2       5 UNK        -0.5220 
     39 N          31.3145   27.2697    0.3434 N.am      6 UNK        -0.4450 
     40 CA         32.4367   27.5313   -0.5671 C.3       6 UNK         0.0367 
     41 CB         33.6556   26.7081   -0.1219 C.3       6 UNK        -0.1929 
     42 C          32.8057   29.0230   -0.6784 C.2       6 UNK         0.5070 
     43 O          33.3963   29.4266   -1.6808 O.2       6 UNK        -0.5237 
     44 N          32.4457   29.8113    0.3385 N.am      7 UNK        -0.4739 
     45 CA         32.5742   31.2610    0.3920 C.3       7 UNK         0.0276 
     46 CB         33.9533   31.6402    0.9605 C.3       7 UNK        -0.1927 
     47 C          31.4490   31.7900    1.2851 C.2       7 UNK         0.5013 
     48 O          30.9984   31.0678    2.1795 O.2       7 UNK        -0.5193 
     49 N          31.0561   33.0540    1.0743 N.am      8 UNK        -0.4253 
     50 CA         29.9987   33.7472    1.8261 C.3       8 UNK         0.0242 
     51 CB         29.7491   35.1264    1.1941 C.3       8 UNK        -0.2000 
     52 C          30.2765   33.8897    3.3357 C.2       8 UNK         0.4948 
     53 O          29.3323   34.0189    4.1150 O.2       8 UNK        -0.5275 
     54 N          31.5583   33.8292    3.7226 N.am      9 UNK        -0.4246 
     55 CA         32.0263   33.7718    5.1090 C.3       9 UNK         0.0261 
     56 CB         33.5090   34.1830    5.1427 C.3       9 UNK        -0.1959 
     57 C          31.8344   32.3927    5.7753 C.2       9 UNK         0.5033 
     58 O          32.1603   32.2615    6.9564 O.2       9 UNK        -0.5390 
     59 N          31.3670   31.3814    5.0216 N.am      10 UNK        -0.4215 
     60 CA         31.1377   29.9914    5.4411 C.3       10 UNK         0.0240 
     61 CB         29.9672   29.9135    6.4447 C.3       10 UNK        -0.1982 
     62 C          32.4146   29.2913    5.9469 C.2       10 UNK         0.4970 
     63 O          32.3372   28.4382    6.8321 O.2       10 UNK        -0.4916 
     64 N          33.5646   29.6878    5.3830 N.am      11 UNK        -0.4279 
     65 CA         34.9234   29.2941    5.7911 C.3       11 UNK         0.1003 
     66 C          35.3255   29.7527    7.2291 C.2       11 UNK         0.5709 
     67 N          34.6234   30.6935    7.8528 N.am      11 UNK        -0.7358 
     68 O          36.3162   29.2780    7.7803 O.2       11 UNK        -0.4999 
     69 C69        35.2327   27.7935    5.5178 C.3       12 UNK        -0.0954 
     70 S70        35.1106   27.3629    3.7475 S.3       12 UNK        -0.2268 
     71 C71        34.7664   25.5751    3.8363 C.3       12 UNK         0.0203 
     72 H72        28.7262   16.7708   -0.7796 H         1 UNK         0.0888 
     73 H73        28.2748   17.1544    0.8826 H         1 UNK         0.0888 
     74 H74        27.0220   16.8506   -0.3227 H         1 UNK         0.0888 
     75 H75        28.4726   19.3354    1.3503 H         1 UNK         0.3017 
     76 H76        28.7808   21.3555   -0.6629 H         1 UNK         0.0873 
     77 H77        28.4936   21.5082    2.3889 H         1 UNK         0.0745 
     78 H78        28.7117   22.9155    1.3899 H         1 UNK         0.0745 
     79 H79        30.6168   23.7141    0.3163 H         1 UNK         0.0705 
     80 H80        32.2272   23.0615    0.3566 H         1 UNK         0.0705 
     81 H81        33.7846   23.9923    1.8488 H         1 UNK         0.1334 
     82 H82        32.5274   26.4277    5.1361 H         1 UNK         0.1417 
     83 H83        29.6080   24.4028    2.7511 H         1 UNK         0.1562 
     84 H84        30.2648   26.8522    5.5568 H         1 UNK         0.0748 
     85 H85        29.4001   25.3403    5.4998 H         1 UNK         0.0748 
     86 H86        30.4674   27.7850    2.7954 H         1 UNK         0.0940 
     87 H87        29.1498   28.8972    2.6824 H         1 UNK         0.0940 
     88 H88        29.0475   26.1825    1.2573 H         1 UNK         0.0703 
     89 H89        27.0481   26.7549    0.6901 H         1 UNK         0.3081 
     90 H90        25.1303   29.6614    0.7004 H         1 UNK         0.0719 
     91 H91        25.9732   28.3042   -1.9202 H         1 UNK         0.0809 
     92 H92        24.4845   29.2177   -1.6624 H         1 UNK         0.0809 
     93 H93        26.0394   30.0299   -1.5952 H         1 UNK         0.0809 
     94 H94        24.6674   26.9888   -0.2944 H         1 UNK         0.2990 
     95 H95        24.2751   25.3678    2.7430 H         1 UNK         0.0690 
     96 H96        21.8858   24.9620    2.2165 H         1 UNK         0.0788 
     97 H97        21.8603   26.3485    1.1248 H         1 UNK         0.0788 
     98 H98        22.0893   26.5846    2.8517 H         1 UNK         0.0788 
     99 H99        23.3434   24.5329    0.2336 H         1 UNK         0.2993 
    100 H100       24.5519   22.8409   -0.7877 H         1 UNK         0.0949 
    101 H101       25.4812   23.5828   -3.0031 H         1 UNK         0.0767 
    102 H102       24.5178   24.8530   -2.2707 H         1 UNK         0.0767 
    103 H103       26.2730   24.9522   -2.2239 H         1 UNK         0.0767 
    104 H104       27.4523   23.0540   -1.2073 H         1 UNK         0.3013 
    105 H105       31.5402   26.7966    1.2074 H         1 UNK         0.3121 
    106 H106       32.1479   27.1957   -1.5655 H         1 UNK         0.0774 
    107 H107       34.5107   26.8911   -0.7742 H         1 UNK         0.0815 
    108 H108       33.9629   26.9579    0.8941 H         1 UNK         0.0815 
    109 H109       33.4467   25.6394   -0.1614 H         1 UNK         0.0815 
    110 H110       31.9164   29.4189    1.1065 H         1 UNK         0.2987 
    111 H111       32.4544   31.6772   -0.6110 H         1 UNK         0.0949 
    112 H112       34.0740   32.7227    1.0149 H         1 UNK         0.0806 
    113 H113       34.0991   31.2412    1.9652 H         1 UNK         0.0806 
    114 H114       34.7580   31.2583    0.3318 H         1 UNK         0.0806 
    115 H115       31.4922   33.5789    0.3291 H         1 UNK         0.3010 
    116 H116       29.0869   33.1538    1.7255 H         1 UNK         0.0829 
    117 H117       29.4493   35.0373    0.1497 H         1 UNK         0.0813 
    118 H118       28.9482   35.6549    1.7135 H         1 UNK         0.0813 
    119 H119       30.6373   35.7580    1.2377 H         1 UNK         0.0813 
    120 H120       32.2627   33.7465    3.0045 H         1 UNK         0.3038 
    121 H121       31.4564   34.4945    5.6969 H         1 UNK         0.0769 
    122 H122       33.6539   35.1809    4.7283 H         1 UNK         0.0811 
    123 H123       34.1349   33.4900    4.5792 H         1 UNK         0.0811 
    124 H124       33.8876   34.2043    6.1658 H         1 UNK         0.0811 
    125 H125       31.1608   31.5606    4.0417 H         1 UNK         0.3204 
    126 H126       30.8375   29.4510    4.5440 H         1 UNK         0.0748 
    127 H127       29.7035   28.8798    6.6681 H         1 UNK         0.0771 
    128 H128       30.2127   30.3966    7.3909 H         1 UNK         0.0771 
    129 H129       29.0733   30.3925    6.0450 H         1 UNK         0.0771 
    130 H130       33.5180   30.3931    4.6640 H         1 UNK         0.2980 
    131 H131       35.5858   29.8719    5.1456 H         1 UNK         0.0545 
    132 H132       34.9093   30.9830    8.7743 H         1 UNK         0.3459 
    133 H133       33.7989   31.1068    7.4322 H         1 UNK         0.3459 
    134 H134       36.2485   27.5452    5.8300 H         1 UNK         0.0616 
    135 H135       34.5723   27.1546    6.1049 H         1 UNK         0.0616 
    136 H136       35.0248   25.1837    4.8210 H         1 UNK         0.0634 
    137 H137       35.4277   25.0722    3.1292 H         1 UNK         0.0634 
@<TRIPOS>BOND
     1    1    2 1    
     2    1   72 1    
     3    1   73 1    
     4    1   74 1    
     5    2    3 2    
     6    2    4 am   BACKBONE|DICT|INTERRES
     7    4    5 1    
     8    4   75 1    
     9    5    6 1    
    10    5   35 1    
    11    5   76 1    
    12    6    7 1    
    13    6   77 1    
    14    6   78 1    
    15    7    8 1    
    16    8    9 1    
    17    8   79 1    
    18    8   80 1    
    19    9   10 ar   
    20    9   14 ar   
    21   10   11 ar   
    22   10   81 1    
    23   11   12 ar   
    24   11   71 1    
    25   12   13 ar   
    26   12   82 1    
    27   13   14 ar   
    28   13   15 1    
    29   14   83 1    
    30   15   16 1    
    31   15   84 1    
    32   15   85 1    
    33   16   17 1    
    34   17   18 1    
    35   17   86 1    
    36   17   87 1    
    37   18   19 1    
    38   18   37 1    
    39   18   88 1    
    40   19   20 am   BACKBONE|DICT|INTERRES
    41   19   89 1    
    42   20   21 2    
    43   20   22 1    
    44   22   23 1    
    45   22   24 1    
    46   22   90 1    
    47   23   91 1    
    48   23   92 1    
    49   23   93 1    
    50   24   25 am   BACKBONE|DICT|INTERRES
    51   24   94 1    
    52   25   26 2    
    53   25   27 1    
    54   27   28 1    
    55   27   29 1    
    56   27   95 1    
    57   28   96 1    
    58   28   97 1    
    59   28   98 1    
    60   29   30 am   BACKBONE|DICT|INTERRES
    61   29   99 1    
    62   30   31 2    
    63   30   32 1    
    64   32   33 1    
    65   32   34 1    
    66   32  100 1    
    67   33  101 1    
    68   33  102 1    
    69   33  103 1    
    70   34   35 am   BACKBONE|DICT|INTERRES
    71   34  104 1    
    72   35   36 2    
    73   37   38 2    
    74   37   39 am   BACKBONE|DICT|INTERRES
    75   39   40 1    
    76   39  105 1    
    77   40   41 1    
    78   40   42 1    
    79   40  106 1    
    80   41  107 1    
    81   41  108 1    
    82   41  109 1    
    83   42   43 2    
    84   42   44 am   BACKBONE|DICT|INTERRES
    85   44   45 1    
    86   44  110 1    
    87   45   46 1    
    88   45   47 1    
    89   45  111 1    
    90   46  112 1    
    91   46  113 1    
    92   46  114 1    
    93   47   48 2    
    94   47   49 am   BACKBONE|DICT|INTERRES
    95   49   50 1    
    96   49  115 1    
    97   50   51 1    
    98   50   52 1    
    99   50  116 1    
   100   51  117 1    
   101   51  118 1    
   102   51  119 1    
   103   52   53 2    
   104   52   54 am   BACKBONE|DICT|INTERRES
   105   54   55 1    
   106   54  120 1    
   107   55   56 1    
   108   55   57 1    
   109   55  121 1    
   110   56  122 1    
   111   56  123 1    
   112   56  124 1    
   113   57   58 2    
   114   57   59 am   BACKBONE|DICT|INTERRES
   115   59   60 1    
   116   59  125 1    
   117   60   61 1    
   118   60   62 1    
   119   60  126 1    
   120   61  127 1    
   121   61  128 1    
   122   61  129 1    
   123   62   63 2    
   124   62   64 am   BACKBONE|DICT|INTERRES
   125   64   65 1    
   126   64  130 1    
   127   65   66 1    
   128   65   69 1    
   129   65  131 1    
   130   66   67 am   BACKBONE|DICT|INTERRES
   131   66   68 2    
   132   67  132 1    
   133   67  133 1    
   134   69   70 1    
   135   69  134 1    
   136   69  135 1    
   137   70   71 1    
   138   71  136 1    
   139   71  137 1    
@<TRIPOS>SUBSTRUCTURE
     1 UNK         1 GROUP             0       ****    0 ROOT    
