@<TRIPOS>MOLECULE
3R136
137   139    1
SMALL
USER_CHARGES


@<TRIPOS>ATOM
      1 CA         26.8704   24.9599    5.0072 C.3       0 UNK        -0.1979 
      2 C          28.0972   25.5943    4.3582 C.2       0 UNK         0.4864 
      3 O          28.6341   26.5493    4.9126 O.2       0 UNK        -0.5359 
      4 N          28.5844   25.1237    3.2003 N.am      1 UNK        -0.4318 
      5 CA         28.0106   24.0951    2.3284 C.3       1 UNK         0.0824 
      6 C6         29.0396   23.5875    1.2878 C.3       12 UNK        -0.0944 
      7 S7         30.5270   22.8599    2.0594 S.3       12 UNK        -0.2672 
      8 C8         31.7909   23.0970    0.7653 C.3       12 UNK         0.0333 
      9 C9         32.4015   24.4925    0.8019 C.ar      12 UNK        -0.0807 
     10 C10        33.5424   24.7478    1.5713 C.ar      12 UNK        -0.0894 
     11 C11        34.1102   26.0276    1.6135 C.ar      12 UNK        -0.0804 
     12 C12        33.5082   27.0575    0.8792 C.ar      12 UNK        -0.0824 
     13 C13        32.3661   26.8175    0.1139 C.ar      12 UNK        -0.0762 
     14 C14        31.8308   25.5299    0.0613 C.ar      12 UNK        -0.0782 
     15 C15        31.6878   27.9576   -0.6245 C.3       12 UNK         0.0230 
     16 S16        30.5059   28.7855    0.4805 S.3       12 UNK        -0.2608 
     17 C17        29.5844   29.8526   -0.6843 C.3       12 UNK        -0.0989 
     18 CA         28.1171   29.4012   -0.9123 C.3       5 UNK         0.0716 
     19 N          28.0555   28.0492   -1.4741 N.am      5 UNK        -0.4135 
     20 C          26.9951   27.4996   -2.0783 C.2       4 UNK         0.5031 
     21 O          25.8997   28.0551   -2.1747 O.2       4 UNK        -0.5229 
     22 CA         27.1919   26.1136   -2.7154 C.3       4 UNK         0.0329 
     23 CB         28.6125   25.5313   -2.5604 C.3       4 UNK        -0.2001 
     24 N          26.2384   25.1809   -2.1262 N.am      4 UNK        -0.4303 
     25 C          25.3506   24.4401   -2.8027 C.2       3 UNK         0.5044 
     26 O          25.2249   24.4727   -4.0280 O.2       3 UNK        -0.5152 
     27 CA         24.4646   23.4698   -1.9940 C.3       3 UNK         0.0319 
     28 CB         24.8373   22.0110   -2.3096 C.3       3 UNK        -0.2001 
     29 N          24.5482   23.6708   -0.5455 N.am      3 UNK        -0.4354 
     30 C          23.9574   24.6694    0.1238 C.2       2 UNK         0.4964 
     31 O          23.2009   25.4895   -0.3955 O.2       2 UNK        -0.5047 
     32 CA         24.2816   24.7883    1.6229 C.3       2 UNK         0.0288 
     33 CB         23.1691   24.1480    2.4685 C.3       2 UNK        -0.2113 
     34 N          25.5757   24.2164    2.0181 N.am      2 UNK        -0.4145 
     35 C          26.7713   24.6828    1.6288 C.2       1 UNK         0.5006 
     36 O          26.9210   25.5727    0.7868 O.2       1 UNK        -0.5103 
     37 C          27.2747   29.5941    0.3670 C.2       5 UNK         0.5055 
     38 O          26.8945   30.7300    0.6558 O.2       5 UNK        -0.5220 
     39 N          27.0418   28.5092    1.1254 N.am      6 UNK        -0.4450 
     40 CA         26.4300   28.4861    2.4609 C.3       6 UNK         0.0367 
     41 CB         24.9396   28.8809    2.3906 C.3       6 UNK        -0.1929 
     42 C          27.2209   29.2992    3.5113 C.2       6 UNK         0.5070 
     43 O          26.6195   29.8437    4.4388 O.2       6 UNK        -0.5237 
     44 N          28.5499   29.3750    3.3484 N.am      7 UNK        -0.4739 
     45 CA         29.4531   30.1648    4.1857 C.3       7 UNK         0.0276 
     46 CB         29.5429   31.5998    3.6314 C.3       7 UNK        -0.1927 
     47 C          30.8324   29.4993    4.3173 C.2       7 UNK         0.5013 
     48 O          31.8458   30.2008    4.3494 O.2       7 UNK        -0.5193 
     49 N          30.8732   28.1628    4.4257 N.am      8 UNK        -0.4253 
     50 CA         32.1114   27.3765    4.5415 C.3       8 UNK         0.0242 
     51 CB         31.8049   25.8808    4.3784 C.3       8 UNK        -0.2000 
     52 C          32.9032   27.6226    5.8388 C.2       8 UNK         0.4948 
     53 O          34.0941   27.3161    5.8807 O.2       8 UNK        -0.5275 
     54 N          32.2513   28.1989    6.8594 N.am      9 UNK        -0.4246 
     55 CA         32.8913   28.6989    8.0790 C.3       9 UNK         0.0261 
     56 CB         31.8097   29.0997    9.0949 C.3       9 UNK        -0.1959 
     57 C          33.8482   29.8779    7.8143 C.2       9 UNK         0.5033 
     58 O          34.8401   30.0162    8.5320 O.2       9 UNK        -0.5390 
     59 N          33.5446   30.6897    6.7910 N.am      10 UNK        -0.4215 
     60 CA         34.4124   31.7539    6.2877 C.3       10 UNK         0.0240 
     61 CB         33.5558   32.9609    5.8687 C.3       10 UNK        -0.1982 
     62 C          35.2571   31.2488    5.1083 C.2       10 UNK         0.4970 
     63 O          36.4566   31.5233    5.0660 O.2       10 UNK        -0.4916 
     64 N          34.6156   30.5204    4.1829 N.am      11 UNK        -0.4279 
     65 CA         35.1993   29.9651    2.9524 C.3       11 UNK         0.1003 
     66 C          35.6381   31.0432    1.9107 C.2       11 UNK         0.5709 
     67 N          35.0804   32.2485    1.9473 N.am      11 UNK        -0.7358 
     68 O          36.4721   30.7923    1.0450 O.2       11 UNK        -0.4999 
     69 C69        36.2696   28.8717    3.2481 C.3       12 UNK        -0.0954 
     70 S70        36.4392   27.6136    1.9299 S.3       12 UNK        -0.2268 
     71 C71        35.3384   26.2665    2.4948 C.3       12 UNK         0.0203 
     72 H72        26.8509   25.1961    6.0709 H         1 UNK         0.0888 
     73 H73        25.9556   25.3549    4.5672 H         1 UNK         0.0888 
     74 H74        26.8725   23.8748    4.9219 H         1 UNK         0.0888 
     75 H75        29.4110   25.5610    2.8231 H         1 UNK         0.3017 
     76 H76        27.7119   23.2376    2.9330 H         1 UNK         0.0873 
     77 H77        28.5917   22.8281    0.6438 H         1 UNK         0.0745 
     78 H78        29.3397   24.4029    0.6330 H         1 UNK         0.0745 
     79 H79        32.5753   22.3520    0.9069 H         1 UNK         0.0705 
     80 H80        31.3573   22.8937   -0.2152 H         1 UNK         0.0705 
     81 H81        33.9839   23.9467    2.1486 H         1 UNK         0.1334 
     82 H82        33.9128   28.0566    0.9007 H         1 UNK         0.1417 
     83 H83        30.9604   25.3410   -0.5473 H         1 UNK         0.1562 
     84 H84        31.1753   27.5813   -1.5108 H         1 UNK         0.0748 
     85 H85        32.4273   28.6795   -0.9750 H         1 UNK         0.0748 
     86 H86        30.1105   29.8902   -1.6396 H         1 UNK         0.0940 
     87 H87        29.6127   30.8760   -0.3041 H         1 UNK         0.0940 
     88 H88        27.6867   30.0718   -1.6595 H         1 UNK         0.0703 
     89 H89        28.9059   27.5112   -1.4184 H         1 UNK         0.3081 
     90 H90        26.9951   26.2408   -3.7818 H         1 UNK         0.0719 
     91 H91        28.8664   25.3679   -1.5139 H         1 UNK         0.0809 
     92 H92        28.6931   24.5695   -3.0675 H         1 UNK         0.0809 
     93 H93        29.3669   26.1832   -3.0030 H         1 UNK         0.0809 
     94 H94        26.2369   25.1459   -1.1128 H         1 UNK         0.2990 
     95 H95        23.4319   23.6340   -2.3091 H         1 UNK         0.0690 
     96 H96        24.1811   21.3120   -1.7906 H         1 UNK         0.0788 
     97 H97        25.8653   21.7856   -2.0227 H         1 UNK         0.0788 
     98 H98        24.7450   21.8054   -3.3770 H         1 UNK         0.0788 
     99 H99        25.1391   23.0335   -0.0320 H         1 UNK         0.2993 
    100 H100       24.3113   25.8549    1.8544 H         1 UNK         0.0949 
    101 H101       22.1953   24.5723    2.2191 H         1 UNK         0.0767 
    102 H102       23.1066   23.0713    2.3054 H         1 UNK         0.0767 
    103 H103       23.3301   24.3193    3.5331 H         1 UNK         0.0767 
    104 H104       25.5381   23.4654    2.6925 H         1 UNK         0.3013 
    105 H105       27.3456   27.6051    0.7788 H         1 UNK         0.3121 
    106 H106       26.4704   27.4506    2.7943 H         1 UNK         0.0774 
    107 H107       24.4393   28.6873    3.3401 H         1 UNK         0.0815 
    108 H108       24.8124   29.9406    2.1678 H         1 UNK         0.0815 
    109 H109       24.4130   28.3133    1.6237 H         1 UNK         0.0815 
    110 H110       28.9755   28.9015    2.5620 H         1 UNK         0.2987 
    111 H111       29.0512   30.2143    5.1992 H         1 UNK         0.0949 
    112 H112       29.9714   31.6128    2.6292 H         1 UNK         0.0806 
    113 H113       28.5604   32.0682    3.5804 H         1 UNK         0.0806 
    114 H114       30.1676   32.2308    4.2646 H         1 UNK         0.0806 
    115 H115       29.9956   27.6463    4.4924 H         1 UNK         0.3010 
    116 H116       32.7608   27.6768    3.7172 H         1 UNK         0.0829 
    117 H117       31.3614   25.6748    3.4055 H         1 UNK         0.0813 
    118 H118       32.7167   25.2856    4.4424 H         1 UNK         0.0813 
    119 H119       31.1276   25.5172    5.1512 H         1 UNK         0.0813 
    120 H120       31.2629   28.3744    6.7532 H         1 UNK         0.3038 
    121 H121       33.4805   27.8849    8.5063 H         1 UNK         0.0769 
    122 H122       31.1693   28.2546    9.3477 H         1 UNK         0.0811 
    123 H123       31.1752   29.9022    8.7170 H         1 UNK         0.0811 
    124 H124       32.2603   29.4514   10.0242 H         1 UNK         0.0811 
    125 H125       32.7297   30.4747    6.2284 H         1 UNK         0.3204 
    126 H126       35.0946   32.0836    7.0744 H         1 UNK         0.0748 
    127 H127       32.9955   33.3583    6.7153 H         1 UNK         0.0771 
    128 H128       34.1815   33.7690    5.4873 H         1 UNK         0.0771 
    129 H129       32.8396   32.7046    5.0871 H         1 UNK         0.0771 
    130 H130       33.6092   30.3932    4.2738 H         1 UNK         0.2980 
    131 H131       34.3502   29.4693    2.4878 H         1 UNK         0.0545 
    132 H132       35.3606   32.9404    1.2706 H         1 UNK         0.3459 
    133 H133       34.3831   32.4704    2.6383 H         1 UNK         0.3459 
    134 H134       37.2452   29.3322    3.4116 H         1 UNK         0.0616 
    135 H135       36.0372   28.3570    4.1810 H         1 UNK         0.0616 
    136 H136       35.9369   25.3554    2.5344 H         1 UNK         0.0634 
    137 H137       35.0038   26.4508    3.5145 H         1 UNK         0.0634 
@<TRIPOS>BOND
     1    1    2 1    
     2    1   72 1    
     3    1   73 1    
     4    1   74 1    
     5    2    3 2    
     6    2    4 am   BACKBONE|DICT|INTERRES
     7    4    5 1    
     8    4   75 1    
     9    5    6 1    
    10    5   35 1    
    11    5   76 1    
    12    6    7 1    
    13    6   77 1    
    14    6   78 1    
    15    7    8 1    
    16    8    9 1    
    17    8   79 1    
    18    8   80 1    
    19    9   10 ar   
    20    9   14 ar   
    21   10   11 ar   
    22   10   81 1    
    23   11   12 ar   
    24   11   71 1    
    25   12   13 ar   
    26   12   82 1    
    27   13   14 ar   
    28   13   15 1    
    29   14   83 1    
    30   15   16 1    
    31   15   84 1    
    32   15   85 1    
    33   16   17 1    
    34   17   18 1    
    35   17   86 1    
    36   17   87 1    
    37   18   19 1    
    38   18   37 1    
    39   18   88 1    
    40   19   20 am   BACKBONE|DICT|INTERRES
    41   19   89 1    
    42   20   21 2    
    43   20   22 1    
    44   22   23 1    
    45   22   24 1    
    46   22   90 1    
    47   23   91 1    
    48   23   92 1    
    49   23   93 1    
    50   24   25 am   BACKBONE|DICT|INTERRES
    51   24   94 1    
    52   25   26 2    
    53   25   27 1    
    54   27   28 1    
    55   27   29 1    
    56   27   95 1    
    57   28   96 1    
    58   28   97 1    
    59   28   98 1    
    60   29   30 am   BACKBONE|DICT|INTERRES
    61   29   99 1    
    62   30   31 2    
    63   30   32 1    
    64   32   33 1    
    65   32   34 1    
    66   32  100 1    
    67   33  101 1    
    68   33  102 1    
    69   33  103 1    
    70   34   35 am   BACKBONE|DICT|INTERRES
    71   34  104 1    
    72   35   36 2    
    73   37   38 2    
    74   37   39 am   BACKBONE|DICT|INTERRES
    75   39   40 1    
    76   39  105 1    
    77   40   41 1    
    78   40   42 1    
    79   40  106 1    
    80   41  107 1    
    81   41  108 1    
    82   41  109 1    
    83   42   43 2    
    84   42   44 am   BACKBONE|DICT|INTERRES
    85   44   45 1    
    86   44  110 1    
    87   45   46 1    
    88   45   47 1    
    89   45  111 1    
    90   46  112 1    
    91   46  113 1    
    92   46  114 1    
    93   47   48 2    
    94   47   49 am   BACKBONE|DICT|INTERRES
    95   49   50 1    
    96   49  115 1    
    97   50   51 1    
    98   50   52 1    
    99   50  116 1    
   100   51  117 1    
   101   51  118 1    
   102   51  119 1    
   103   52   53 2    
   104   52   54 am   BACKBONE|DICT|INTERRES
   105   54   55 1    
   106   54  120 1    
   107   55   56 1    
   108   55   57 1    
   109   55  121 1    
   110   56  122 1    
   111   56  123 1    
   112   56  124 1    
   113   57   58 2    
   114   57   59 am   BACKBONE|DICT|INTERRES
   115   59   60 1    
   116   59  125 1    
   117   60   61 1    
   118   60   62 1    
   119   60  126 1    
   120   61  127 1    
   121   61  128 1    
   122   61  129 1    
   123   62   63 2    
   124   62   64 am   BACKBONE|DICT|INTERRES
   125   64   65 1    
   126   64  130 1    
   127   65   66 1    
   128   65   69 1    
   129   65  131 1    
   130   66   67 am   BACKBONE|DICT|INTERRES
   131   66   68 2    
   132   67  132 1    
   133   67  133 1    
   134   69   70 1    
   135   69  134 1    
   136   69  135 1    
   137   70   71 1    
   138   71  136 1    
   139   71  137 1    
@<TRIPOS>SUBSTRUCTURE
     1 UNK         1 GROUP             0       ****    0 ROOT    
