@<TRIPOS>MOLECULE
3R136
137   139    1
SMALL
USER_CHARGES


@<TRIPOS>ATOM
      1 CA         30.7180   25.8019    0.5190 C.3       0 UNK        -0.1979 
      2 C          29.4403   24.9927    0.4032 C.2       0 UNK         0.4864 
      3 O          28.4073   25.5435    0.0260 O.2       0 UNK        -0.5359 
      4 N          29.4924   23.6899    0.7073 N.am      1 UNK        -0.4318 
      5 CA         28.3791   22.7289    0.6354 C.3       1 UNK         0.0824 
      6 C6         28.7631   21.3096    1.1468 C.3       12 UNK        -0.0944 
      7 S7         30.4904   20.8076    0.7998 S.3       12 UNK        -0.2672 
      8 C8         31.2406   20.8393    2.4652 C.3       12 UNK         0.0333 
      9 C9         31.2451   22.2373    3.0721 C.ar      12 UNK        -0.0807 
     10 C10        32.2690   23.1402    2.7716 C.ar      12 UNK        -0.0894 
     11 C11        32.2668   24.4343    3.3068 C.ar      12 UNK        -0.0804 
     12 C12        31.2103   24.8208    4.1458 C.ar      12 UNK        -0.0824 
     13 C13        30.1868   23.9227    4.4627 C.ar      12 UNK        -0.0762 
     14 C14        30.2226   22.6290    3.9393 C.ar      12 UNK        -0.0782 
     15 C15        29.0497   24.3232    5.3917 C.3       12 UNK         0.0230 
     16 S16        27.4599   24.4359    4.5022 S.3       12 UNK        -0.2608 
     17 C17        27.1587   26.2361    4.4049 C.3       12 UNK        -0.0989 
     18 CA         27.2965   26.8068    2.9655 C.3       5 UNK         0.0716 
     19 N          26.4829   26.1165    1.9566 N.am      5 UNK        -0.4135 
     20 C          25.1488   25.9916    1.9365 C.2       4 UNK         0.5031 
     21 O          24.4037   26.4681    2.7950 O.2       4 UNK        -0.5229 
     22 CA         24.5499   25.1955    0.7550 C.3       4 UNK         0.0329 
     23 CB         23.0424   25.4639    0.5587 C.3       4 UNK        -0.2001 
     24 N          25.2707   25.3683   -0.5150 N.am      4 UNK        -0.4303 
     25 C          25.4954   26.5212   -1.1679 C.2       3 UNK         0.5044 
     26 O          25.1245   27.6169   -0.7485 O.2       3 UNK        -0.5152 
     27 CA         26.2902   26.4518   -2.4871 C.3       3 UNK         0.0319 
     28 CB         27.1866   27.6900   -2.6783 C.3       3 UNK        -0.2001 
     29 N          27.1325   25.2572   -2.5273 N.am      3 UNK        -0.4354 
     30 C          27.0396   24.2524   -3.4090 C.2       2 UNK         0.4964 
     31 O          26.2540   24.2438   -4.3571 O.2       2 UNK        -0.5047 
     32 CA         27.9683   23.0373   -3.1978 C.3       2 UNK         0.0288 
     33 CB         29.1689   23.1083   -4.1556 C.3       2 UNK        -0.2113 
     34 N          28.4636   22.8907   -1.8242 N.am      2 UNK        -0.4145 
     35 C          27.6951   22.6688   -0.7472 C.2       1 UNK         0.5006 
     36 O          26.4764   22.4961   -0.8064 O.2       1 UNK        -0.5103 
     37 C          27.1319   28.3432    2.9110 C.2       5 UNK         0.5055 
     38 O          27.3531   29.0141    3.9208 O.2       5 UNK        -0.5220 
     39 N          26.7885   28.8915    1.7331 N.am      6 UNK        -0.4450 
     40 CA         26.6977   30.3367    1.4849 C.3       6 UNK         0.0367 
     41 CB         25.9803   30.5853    0.1493 C.3       6 UNK        -0.1929 
     42 C          28.0585   31.0600    1.5008 C.2       6 UNK         0.5070 
     43 O          28.0875   32.2825    1.6500 O.2       6 UNK        -0.5237 
     44 N          29.1610   30.3099    1.3619 N.am      7 UNK        -0.4739 
     45 CA         30.5470   30.7840    1.4273 C.3       7 UNK         0.0276 
     46 CB         31.4523   29.7411    0.7479 C.3       7 UNK        -0.1927 
     47 C          30.9891   31.1135    2.8704 C.2       7 UNK         0.5013 
     48 O          31.9432   30.5239    3.3854 O.2       7 UNK        -0.5193 
     49 N          30.2735   32.0549    3.4995 N.am      8 UNK        -0.4253 
     50 CA         30.5352   32.5850    4.8382 C.3       8 UNK         0.0242 
     51 CB         29.4401   33.6001    5.2007 C.3       8 UNK        -0.2000 
     52 C          31.9256   33.2322    4.9333 C.2       8 UNK         0.4948 
     53 O          32.3878   33.8367    3.9615 O.2       8 UNK        -0.5275 
     54 N          32.5778   33.0629    6.0907 N.am      9 UNK        -0.4246 
     55 CA         33.9593   33.4454    6.4231 C.3       9 UNK         0.0261 
     56 CB         34.1864   34.9655    6.3015 C.3       9 UNK        -0.1959 
     57 C          35.0338   32.6539    5.6520 C.2       9 UNK         0.5033 
     58 O          36.0058   32.2192    6.2702 O.2       9 UNK        -0.5390 
     59 N          34.8355   32.4404    4.3438 N.am      10 UNK        -0.4215 
     60 CA         35.7016   31.6547    3.4587 C.3       10 UNK         0.0240 
     61 CB         35.1734   31.7340    2.0176 C.3       10 UNK        -0.1982 
     62 C          35.8597   30.1910    3.9070 C.2       10 UNK         0.4970 
     63 O          36.9785   29.6760    3.8917 O.2       10 UNK        -0.4916 
     64 N          34.7545   29.5695    4.3379 N.am      11 UNK        -0.4279 
     65 CA         34.7397   28.2433    4.9783 C.3       11 UNK         0.1003 
     66 C          35.1799   28.2423    6.4745 C.2       11 UNK         0.5709 
     67 N          35.5577   29.3640    7.0775 N.am      11 UNK        -0.7358 
     68 O          35.1965   27.1887    7.1070 O.2       11 UNK        -0.4999 
     69 C69        33.3753   27.5326    4.7800 C.3       12 UNK        -0.0954 
     70 S70        33.0631   27.1498    3.0250 S.3       12 UNK        -0.2268 
     71 C71        33.4352   25.3637    2.9652 C.3       12 UNK         0.0203 
     72 H72        30.6957   26.3894    1.4350 H         1 UNK         0.0888 
     73 H73        30.8115   26.4854   -0.3244 H         1 UNK         0.0888 
     74 H74        31.6002   25.1636    0.5347 H         1 UNK         0.0888 
     75 H75        30.3616   23.2923    1.0390 H         1 UNK         0.3017 
     76 H76        27.6156   23.1149    1.3148 H         1 UNK         0.0873 
     77 H77        28.5856   21.2549    2.2193 H         1 UNK         0.0745 
     78 H78        28.1016   20.5441    0.7352 H         1 UNK         0.0745 
     79 H79        30.7084   20.1419    3.1142 H         1 UNK         0.0705 
     80 H80        32.2638   20.4666    2.3968 H         1 UNK         0.0705 
     81 H81        33.0728   22.8313    2.1165 H         1 UNK         0.1334 
     82 H82        31.1811   25.8148    4.5670 H         1 UNK         0.1417 
     83 H83        29.4366   21.9336    4.1997 H         1 UNK         0.1562 
     84 H84        29.2779   25.2547    5.9105 H         1 UNK         0.0748 
     85 H85        28.9531   23.5672    6.1723 H         1 UNK         0.0748 
     86 H86        27.8396   26.7512    5.0839 H         1 UNK         0.0940 
     87 H87        26.1586   26.4309    4.7955 H         1 UNK         0.0940 
     88 H88        28.3302   26.6332    2.6651 H         1 UNK         0.0703 
     89 H89        27.0164   25.7425    1.1739 H         1 UNK         0.3081 
     90 H90        24.6628   24.1434    1.0213 H         1 UNK         0.0719 
     91 H91        22.8449   26.5137    0.3393 H         1 UNK         0.0809 
     92 H92        22.6361   24.8677   -0.2584 H         1 UNK         0.0809 
     93 H93        22.4775   25.2074    1.4558 H         1 UNK         0.0809 
     94 H94        25.6367   24.5152   -0.9218 H         1 UNK         0.2990 
     95 H95        25.5559   26.4305   -3.2945 H         1 UNK         0.0690 
     96 H96        27.7580   27.6253   -3.6042 H         1 UNK         0.0788 
     97 H97        27.8935   27.8043   -1.8552 H         1 UNK         0.0788 
     98 H98        26.5918   28.6027   -2.7314 H         1 UNK         0.0788 
     99 H99        27.7857   25.1777   -1.7521 H         1 UNK         0.2993 
    100 H100       27.3875   22.1439   -3.4376 H         1 UNK         0.0949 
    101 H101       28.8376   23.1856   -5.1924 H         1 UNK         0.0767 
    102 H102       29.7987   23.9748   -3.9492 H         1 UNK         0.0767 
    103 H103       29.7895   22.2149   -4.0821 H         1 UNK         0.0767 
    104 H104       29.4545   23.0214   -1.6800 H         1 UNK         0.3013 
    105 H105       26.5582   28.2837    0.9564 H         1 UNK         0.3121 
    106 H106       26.0925   30.7765    2.2806 H         1 UNK         0.0774 
    107 H107       26.5179   30.1369   -0.6868 H         1 UNK         0.0815 
    108 H108       25.8897   31.6531   -0.0555 H         1 UNK         0.0815 
    109 H109       24.9706   30.1743    0.1597 H         1 UNK         0.0815 
    110 H110       29.0353   29.3142    1.2610 H         1 UNK         0.2987 
    111 H111       30.6237   31.7112    0.8548 H         1 UNK         0.0949 
    112 H112       31.3943   28.7762    1.2496 H         1 UNK         0.0806 
    113 H113       31.1752   29.5933   -0.2960 H         1 UNK         0.0806 
    114 H114       32.4967   30.0536    0.7628 H         1 UNK         0.0806 
    115 H115       29.4965   32.4599    2.9862 H         1 UNK         0.3010 
    116 H116       30.4858   31.7465    5.5360 H         1 UNK         0.0829 
    117 H117       28.4506   33.1428    5.1743 H         1 UNK         0.0813 
    118 H118       29.5877   33.9945    6.2071 H         1 UNK         0.0813 
    119 H119       29.4358   34.4486    4.5149 H         1 UNK         0.0813 
    120 H120       32.1051   32.5390    6.8152 H         1 UNK         0.3038 
    121 H121       34.0838   33.1861    7.4760 H         1 UNK         0.0769 
    122 H122       34.1225   35.3115    5.2696 H         1 UNK         0.0811 
    123 H123       35.1760   35.2387    6.6704 H         1 UNK         0.0811 
    124 H124       33.4567   35.5236    6.8882 H         1 UNK         0.0811 
    125 H125       33.9990   32.8521    3.9355 H         1 UNK         0.3204 
    126 H126       36.6923   32.1133    3.4837 H         1 UNK         0.0748 
    127 H127       35.8033   31.1594    1.3369 H         1 UNK         0.0771 
    128 H128       34.1607   31.3387    1.9388 H         1 UNK         0.0771 
    129 H129       35.1597   32.7626    1.6564 H         1 UNK         0.0771 
    130 H130       33.8577   30.0347    4.2516 H         1 UNK         0.2980 
    131 H131       35.4895   27.6289    4.4761 H         1 UNK         0.0545 
    132 H132       35.8422   29.3214    8.0431 H         1 UNK         0.3459 
    133 H133       35.6181   30.2439    6.5795 H         1 UNK         0.3459 
    134 H134       33.3269   26.6040    5.3514 H         1 UNK         0.0616 
    135 H135       32.5612   28.1592    5.1484 H         1 UNK         0.0616 
    136 H136       33.7823   25.1450    1.9541 H         1 UNK         0.0634 
    137 H137       34.2737   25.1436    3.6273 H         1 UNK         0.0634 
@<TRIPOS>BOND
     1    1    2 1    
     2    1   72 1    
     3    1   73 1    
     4    1   74 1    
     5    2    3 2    
     6    2    4 am   BACKBONE|DICT|INTERRES
     7    4    5 1    
     8    4   75 1    
     9    5    6 1    
    10    5   35 1    
    11    5   76 1    
    12    6    7 1    
    13    6   77 1    
    14    6   78 1    
    15    7    8 1    
    16    8    9 1    
    17    8   79 1    
    18    8   80 1    
    19    9   10 ar   
    20    9   14 ar   
    21   10   11 ar   
    22   10   81 1    
    23   11   12 ar   
    24   11   71 1    
    25   12   13 ar   
    26   12   82 1    
    27   13   14 ar   
    28   13   15 1    
    29   14   83 1    
    30   15   16 1    
    31   15   84 1    
    32   15   85 1    
    33   16   17 1    
    34   17   18 1    
    35   17   86 1    
    36   17   87 1    
    37   18   19 1    
    38   18   37 1    
    39   18   88 1    
    40   19   20 am   BACKBONE|DICT|INTERRES
    41   19   89 1    
    42   20   21 2    
    43   20   22 1    
    44   22   23 1    
    45   22   24 1    
    46   22   90 1    
    47   23   91 1    
    48   23   92 1    
    49   23   93 1    
    50   24   25 am   BACKBONE|DICT|INTERRES
    51   24   94 1    
    52   25   26 2    
    53   25   27 1    
    54   27   28 1    
    55   27   29 1    
    56   27   95 1    
    57   28   96 1    
    58   28   97 1    
    59   28   98 1    
    60   29   30 am   BACKBONE|DICT|INTERRES
    61   29   99 1    
    62   30   31 2    
    63   30   32 1    
    64   32   33 1    
    65   32   34 1    
    66   32  100 1    
    67   33  101 1    
    68   33  102 1    
    69   33  103 1    
    70   34   35 am   BACKBONE|DICT|INTERRES
    71   34  104 1    
    72   35   36 2    
    73   37   38 2    
    74   37   39 am   BACKBONE|DICT|INTERRES
    75   39   40 1    
    76   39  105 1    
    77   40   41 1    
    78   40   42 1    
    79   40  106 1    
    80   41  107 1    
    81   41  108 1    
    82   41  109 1    
    83   42   43 2    
    84   42   44 am   BACKBONE|DICT|INTERRES
    85   44   45 1    
    86   44  110 1    
    87   45   46 1    
    88   45   47 1    
    89   45  111 1    
    90   46  112 1    
    91   46  113 1    
    92   46  114 1    
    93   47   48 2    
    94   47   49 am   BACKBONE|DICT|INTERRES
    95   49   50 1    
    96   49  115 1    
    97   50   51 1    
    98   50   52 1    
    99   50  116 1    
   100   51  117 1    
   101   51  118 1    
   102   51  119 1    
   103   52   53 2    
   104   52   54 am   BACKBONE|DICT|INTERRES
   105   54   55 1    
   106   54  120 1    
   107   55   56 1    
   108   55   57 1    
   109   55  121 1    
   110   56  122 1    
   111   56  123 1    
   112   56  124 1    
   113   57   58 2    
   114   57   59 am   BACKBONE|DICT|INTERRES
   115   59   60 1    
   116   59  125 1    
   117   60   61 1    
   118   60   62 1    
   119   60  126 1    
   120   61  127 1    
   121   61  128 1    
   122   61  129 1    
   123   62   63 2    
   124   62   64 am   BACKBONE|DICT|INTERRES
   125   64   65 1    
   126   64  130 1    
   127   65   66 1    
   128   65   69 1    
   129   65  131 1    
   130   66   67 am   BACKBONE|DICT|INTERRES
   131   66   68 2    
   132   67  132 1    
   133   67  133 1    
   134   69   70 1    
   135   69  134 1    
   136   69  135 1    
   137   70   71 1    
   138   71  136 1    
   139   71  137 1    
@<TRIPOS>SUBSTRUCTURE
     1 UNK         1 GROUP             0       ****    0 ROOT    
