@<TRIPOS>MOLECULE
3R136
137   139    1
SMALL
USER_CHARGES


@<TRIPOS>ATOM
      1 CA         32.6621   24.4917   -4.8734 C.3       0 UNK        -0.1979 
      2 C          31.8760   24.9481   -3.6530 C.2       0 UNK         0.4864 
      3 O          31.8831   26.1367   -3.3325 O.2       0 UNK        -0.5359 
      4 N          31.2070   24.0116   -2.9680 N.am      1 UNK        -0.4318 
      5 CA         30.3509   24.2742   -1.8077 C.3       1 UNK         0.0824 
      6 C6         30.0723   22.9660   -1.0202 C.3       12 UNK        -0.0944 
      7 S7         29.5273   23.2988    0.6897 S.3       12 UNK        -0.2672 
      8 C8         30.7945   22.4642    1.6879 C.3       12 UNK         0.0333 
      9 C9         30.8868   23.1102    3.0598 C.ar      12 UNK        -0.0807 
     10 C10        31.9669   23.9426    3.3633 C.ar      12 UNK        -0.0894 
     11 C11        32.0455   24.5753    4.6044 C.ar      12 UNK        -0.0804 
     12 C12        31.0413   24.3627    5.5517 C.ar      12 UNK        -0.0824 
     13 C13        29.9525   23.5342    5.2608 C.ar      12 UNK        -0.0762 
     14 C14        29.8849   22.9021    4.0148 C.ar      12 UNK        -0.0782 
     15 C15        28.8492   23.3331    6.2931 C.3       12 UNK         0.0230 
     16 S16        27.3380   24.2811    5.9041 S.3       12 UNK        -0.2608 
     17 C17        27.9761   25.9858    5.7686 C.3       12 UNK        -0.0989 
     18 CA         27.9996   26.4439    4.2855 C.3       5 UNK         0.0716 
     19 N          26.6766   26.7244    3.7139 N.am      5 UNK        -0.4135 
     20 C          25.7953   27.6532    4.1222 C.2       4 UNK         0.5031 
     21 O          25.9380   28.3350    5.1378 O.2       4 UNK        -0.5229 
     22 CA         24.5502   27.9102    3.2442 C.3       4 UNK         0.0329 
     23 CB         24.5537   29.3566    2.7182 C.3       4 UNK        -0.2001 
     24 N          24.4281   27.0048    2.1005 N.am      4 UNK        -0.4303 
     25 C          24.0796   25.7137    2.1643 C.2       3 UNK         0.5044 
     26 O          23.7049   25.1586    3.1973 O.2       3 UNK        -0.5152 
     27 CA         24.1968   24.8900    0.8665 C.3       3 UNK         0.0319 
     28 CB         22.8024   24.6265    0.2743 C.3       3 UNK        -0.2001 
     29 N          25.0583   25.4636   -0.1797 N.am      3 UNK        -0.4354 
     30 C          26.3605   25.7594   -0.0592 C.2       2 UNK         0.4964 
     31 O          26.9878   25.7176    1.0039 O.2       2 UNK        -0.5047 
     32 CA         27.0773   26.2215   -1.3315 C.3       2 UNK         0.0288 
     33 CB         27.1211   27.7563   -1.3998 C.3       2 UNK        -0.2113 
     34 N          28.4352   25.6936   -1.2732 N.am      2 UNK        -0.4145 
     35 C          29.0341   24.9697   -2.2238 C.2       1 UNK         0.5006 
     36 O          28.5665   24.7916   -3.3528 O.2       1 UNK        -0.5103 
     37 C          28.9324   27.6335    3.9972 C.2       5 UNK         0.5055 
     38 O          29.4174   28.3113    4.9095 O.2       5 UNK        -0.5220 
     39 N          29.1170   27.8789    2.6958 N.am      6 UNK        -0.4450 
     40 CA         29.8934   28.9779    2.1458 C.3       6 UNK         0.0367 
     41 CB         28.9634   30.1731    1.8617 C.3       6 UNK        -0.1929 
     42 C          30.6379   28.4830    0.9021 C.2       6 UNK         0.5070 
     43 O          30.2734   28.8338   -0.2195 O.2       6 UNK        -0.5237 
     44 N          31.6702   27.6588    1.1259 N.am      7 UNK        -0.4739 
     45 CA         32.6852   27.3476    0.1108 C.3       7 UNK         0.0276 
     46 CB         33.4261   26.0584    0.4967 C.3       7 UNK        -0.1927 
     47 C          33.6697   28.5197   -0.0852 C.2       7 UNK         0.5013 
     48 O          34.2158   28.6812   -1.1771 O.2       7 UNK        -0.5193 
     49 N          33.8477   29.3262    0.9707 N.am      8 UNK        -0.4253 
     50 CA         34.4645   30.6532    0.9463 C.3       8 UNK         0.0242 
     51 CB         35.3677   30.7962    2.1890 C.3       8 UNK        -0.2000 
     52 C          33.3430   31.7124    0.8827 C.2       8 UNK         0.4948 
     53 O          32.2930   31.4483    0.2951 O.2       8 UNK        -0.5275 
     54 N          33.5462   32.8831    1.5058 N.am      9 UNK        -0.4246 
     55 CA         32.4872   33.8811    1.7229 C.3       9 UNK         0.0261 
     56 CB         33.1049   35.1932    2.2338 C.3       9 UNK        -0.1959 
     57 C          31.4056   33.3681    2.6951 C.2       9 UNK         0.5033 
     58 O          30.2161   33.5879    2.4662 O.2       9 UNK        -0.5390 
     59 N          31.8582   32.6589    3.7330 N.am      10 UNK        -0.4215 
     60 CA         31.0985   31.8889    4.7090 C.3       10 UNK         0.0240 
     61 CB         30.3467   32.8128    5.6846 C.3       10 UNK        -0.1982 
     62 C          32.1333   31.0321    5.4441 C.2       10 UNK         0.4970 
     63 O          33.2505   31.5129    5.6591 O.2       10 UNK        -0.4916 
     64 N          31.7749   29.7977    5.8053 N.am      11 UNK        -0.4279 
     65 CA         32.6797   28.8740    6.5094 C.3       11 UNK         0.1003 
     66 C          31.9731   27.8834    7.4755 C.2       11 UNK         0.5709 
     67 N          30.6524   27.7566    7.4612 N.am      11 UNK        -0.7358 
     68 O          32.6377   27.2395    8.2835 O.2       11 UNK        -0.4999 
     69 C69        33.6928   28.1893    5.5499 C.3       12 UNK        -0.0954 
     70 S70        32.8922   27.1684    4.2678 S.3       12 UNK        -0.2268 
     71 C71        33.2075   25.4993    4.9177 C.3       12 UNK         0.0203 
     72 H72        32.5827   23.4163   -5.0317 H         1 UNK         0.0888 
     73 H73        33.7165   24.7398   -4.7547 H         1 UNK         0.0888 
     74 H74        32.2918   24.9941   -5.7667 H         1 UNK         0.0888 
     75 H75        31.2114   23.0588   -3.3026 H         1 UNK         0.3017 
     76 H76        30.9002   24.9594   -1.1580 H         1 UNK         0.0873 
     77 H77        30.9735   22.3520   -0.9851 H         1 UNK         0.0745 
     78 H78        29.3196   22.3534   -1.5207 H         1 UNK         0.0745 
     79 H79        30.5461   21.4064    1.7846 H         1 UNK         0.0705 
     80 H80        31.7607   22.5149    1.1835 H         1 UNK         0.0705 
     81 H81        32.7439   24.1100    2.6313 H         1 UNK         0.1334 
     82 H82        31.1017   24.8575    6.5117 H         1 UNK         0.1417 
     83 H83        29.0401   22.2693    3.7779 H         1 UNK         0.1562 
     84 H84        29.1983   23.6151    7.2878 H         1 UNK         0.0748 
     85 H85        28.5956   22.2736    6.3510 H         1 UNK         0.0748 
     86 H86        28.9734   26.0209    6.2027 H         1 UNK         0.0940 
     87 H87        27.3712   26.6471    6.3887 H         1 UNK         0.0940 
     88 H88        28.4093   25.6186    3.6994 H         1 UNK         0.0703 
     89 H89        26.4902   26.2480    2.8371 H         1 UNK         0.3081 
     90 H90        23.6734   27.7785    3.8816 H         1 UNK         0.0719 
     91 H91        24.5842   30.0733    3.5402 H         1 UNK         0.0809 
     92 H92        25.4194   29.5532    2.0840 H         1 UNK         0.0809 
     93 H93        23.6553   29.5721    2.1395 H         1 UNK         0.0809 
     94 H94        24.7155   27.3679    1.2036 H         1 UNK         0.2990 
     95 H95        24.6336   23.9292    1.1464 H         1 UNK         0.0690 
     96 H96        22.8526   23.9451   -0.5752 H         1 UNK         0.0788 
     97 H97        22.3259   25.5489   -0.0605 H         1 UNK         0.0788 
     98 H98        22.1425   24.1688    1.0130 H         1 UNK         0.0788 
     99 H99        24.6295   25.5677   -1.0886 H         1 UNK         0.2993 
    100 H100       26.5493   25.8308   -2.2043 H         1 UNK         0.0949 
    101 H101       27.5912   28.1866   -0.5151 H         1 UNK         0.0767 
    102 H102       27.6825   28.0962   -2.2704 H         1 UNK         0.0767 
    103 H103       26.1171   28.1755   -1.4752 H         1 UNK         0.0767 
    104 H104       28.8353   25.6854   -0.3438 H         1 UNK         0.3013 
    105 H105       28.6848   27.2611    2.0204 H         1 UNK         0.3121 
    106 H106       30.6533   29.2945    2.8627 H         1 UNK         0.0774 
    107 H107       28.1714   29.9134    1.1591 H         1 UNK         0.0815 
    108 H108       28.4915   30.5367    2.7745 H         1 UNK         0.0815 
    109 H109       29.5231   31.0046    1.4309 H         1 UNK         0.0815 
    110 H110       31.8635   27.3593    2.0737 H         1 UNK         0.2987 
    111 H111       32.1869   27.1795   -0.8466 H         1 UNK         0.0949 
    112 H112       32.7405   25.2132    0.5503 H         1 UNK         0.0806 
    113 H113       34.1841   25.8098   -0.2474 H         1 UNK         0.0806 
    114 H114       33.9305   26.1507    1.4591 H         1 UNK         0.0806 
    115 H115       33.3332   29.0996    1.8079 H         1 UNK         0.3010 
    116 H116       35.0792   30.7677    0.0511 H         1 UNK         0.0829 
    117 H117       35.9485   31.7186    2.1592 H         1 UNK         0.0813 
    118 H118       36.0857   29.9776    2.2452 H         1 UNK         0.0813 
    119 H119       34.7924   30.7909    3.1162 H         1 UNK         0.0813 
    120 H120       34.4409   33.0570    1.9408 H         1 UNK         0.3038 
    121 H121       32.0045   34.0822    0.7638 H         1 UNK         0.0769 
    122 H122       33.8195   35.6000    1.5180 H         1 UNK         0.0811 
    123 H123       33.6212   35.0582    3.1850 H         1 UNK         0.0811 
    124 H124       32.3349   35.9509    2.3863 H         1 UNK         0.0811 
    125 H125       32.8587   32.5624    3.8580 H         1 UNK         0.3204 
    126 H126       30.3892   31.2450    4.1887 H         1 UNK         0.0748 
    127 H127       29.8132   32.2313    6.4375 H         1 UNK         0.0771 
    128 H128       31.0282   33.4836    6.2094 H         1 UNK         0.0771 
    129 H129       29.6078   33.4244    5.1670 H         1 UNK         0.0771 
    130 H130       30.8609   29.4277    5.5605 H         1 UNK         0.2980 
    131 H131       33.2738   29.4836    7.1933 H         1 UNK         0.0545 
    132 H132       30.0932   28.1827    6.7322 H         1 UNK         0.3459 
    133 H133       30.2195   27.1415    8.1302 H         1 UNK         0.3459 
    134 H134       34.4158   27.5947    6.1106 H         1 UNK         0.0616 
    135 H135       34.2859   28.9491    5.0395 H         1 UNK         0.0616 
    136 H136       34.1306   25.1126    4.4835 H         1 UNK         0.0634 
    137 H137       33.3650   25.5320    5.9966 H         1 UNK         0.0634 
@<TRIPOS>BOND
     1    1    2 1    
     2    1   72 1    
     3    1   73 1    
     4    1   74 1    
     5    2    3 2    
     6    2    4 am   BACKBONE|DICT|INTERRES
     7    4    5 1    
     8    4   75 1    
     9    5    6 1    
    10    5   35 1    
    11    5   76 1    
    12    6    7 1    
    13    6   77 1    
    14    6   78 1    
    15    7    8 1    
    16    8    9 1    
    17    8   79 1    
    18    8   80 1    
    19    9   10 ar   
    20    9   14 ar   
    21   10   11 ar   
    22   10   81 1    
    23   11   12 ar   
    24   11   71 1    
    25   12   13 ar   
    26   12   82 1    
    27   13   14 ar   
    28   13   15 1    
    29   14   83 1    
    30   15   16 1    
    31   15   84 1    
    32   15   85 1    
    33   16   17 1    
    34   17   18 1    
    35   17   86 1    
    36   17   87 1    
    37   18   19 1    
    38   18   37 1    
    39   18   88 1    
    40   19   20 am   BACKBONE|DICT|INTERRES
    41   19   89 1    
    42   20   21 2    
    43   20   22 1    
    44   22   23 1    
    45   22   24 1    
    46   22   90 1    
    47   23   91 1    
    48   23   92 1    
    49   23   93 1    
    50   24   25 am   BACKBONE|DICT|INTERRES
    51   24   94 1    
    52   25   26 2    
    53   25   27 1    
    54   27   28 1    
    55   27   29 1    
    56   27   95 1    
    57   28   96 1    
    58   28   97 1    
    59   28   98 1    
    60   29   30 am   BACKBONE|DICT|INTERRES
    61   29   99 1    
    62   30   31 2    
    63   30   32 1    
    64   32   33 1    
    65   32   34 1    
    66   32  100 1    
    67   33  101 1    
    68   33  102 1    
    69   33  103 1    
    70   34   35 am   BACKBONE|DICT|INTERRES
    71   34  104 1    
    72   35   36 2    
    73   37   38 2    
    74   37   39 am   BACKBONE|DICT|INTERRES
    75   39   40 1    
    76   39  105 1    
    77   40   41 1    
    78   40   42 1    
    79   40  106 1    
    80   41  107 1    
    81   41  108 1    
    82   41  109 1    
    83   42   43 2    
    84   42   44 am   BACKBONE|DICT|INTERRES
    85   44   45 1    
    86   44  110 1    
    87   45   46 1    
    88   45   47 1    
    89   45  111 1    
    90   46  112 1    
    91   46  113 1    
    92   46  114 1    
    93   47   48 2    
    94   47   49 am   BACKBONE|DICT|INTERRES
    95   49   50 1    
    96   49  115 1    
    97   50   51 1    
    98   50   52 1    
    99   50  116 1    
   100   51  117 1    
   101   51  118 1    
   102   51  119 1    
   103   52   53 2    
   104   52   54 am   BACKBONE|DICT|INTERRES
   105   54   55 1    
   106   54  120 1    
   107   55   56 1    
   108   55   57 1    
   109   55  121 1    
   110   56  122 1    
   111   56  123 1    
   112   56  124 1    
   113   57   58 2    
   114   57   59 am   BACKBONE|DICT|INTERRES
   115   59   60 1    
   116   59  125 1    
   117   60   61 1    
   118   60   62 1    
   119   60  126 1    
   120   61  127 1    
   121   61  128 1    
   122   61  129 1    
   123   62   63 2    
   124   62   64 am   BACKBONE|DICT|INTERRES
   125   64   65 1    
   126   64  130 1    
   127   65   66 1    
   128   65   69 1    
   129   65  131 1    
   130   66   67 am   BACKBONE|DICT|INTERRES
   131   66   68 2    
   132   67  132 1    
   133   67  133 1    
   134   69   70 1    
   135   69  134 1    
   136   69  135 1    
   137   70   71 1    
   138   71  136 1    
   139   71  137 1    
@<TRIPOS>SUBSTRUCTURE
     1 UNK         1 GROUP             0       ****    0 ROOT    
