@<TRIPOS>MOLECULE
3R136
137   139    1
SMALL
USER_CHARGES


@<TRIPOS>ATOM
      1 CA         26.5316   22.4841   -0.0087 C.3       0 UNK        -0.1979 
      2 C          28.0086   22.8338   -0.0934 C.2       0 UNK         0.4864 
      3 O          28.4232   23.9049    0.3574 O.2       0 UNK        -0.5359 
      4 N          28.7973   21.9339   -0.6943 N.am      1 UNK        -0.4318 
      5 CA         30.2415   22.0690   -0.9258 C.3       1 UNK         0.0824 
      6 C6         31.0708   22.1027    0.3936 C.3       12 UNK        -0.0944 
      7 S7         30.7448   20.6381    1.4320 S.3       12 UNK        -0.2672 
      8 C8         31.3537   21.1863    3.0604 C.3       12 UNK         0.0333 
      9 C9         30.4669   22.2221    3.7489 C.ar      12 UNK        -0.0807 
     10 C10        31.0534   23.3413    4.3486 C.ar      12 UNK        -0.0894 
     11 C11        30.2739   24.2613    5.0557 C.ar      12 UNK        -0.0804 
     12 C12        28.8960   24.0602    5.1620 C.ar      12 UNK        -0.0824 
     13 C13        28.2896   22.9651    4.5422 C.ar      12 UNK        -0.0762 
     14 C14        29.0806   22.0440    3.8453 C.ar      12 UNK        -0.0782 
     15 C15        26.7833   22.7699    4.6404 C.3       12 UNK         0.0230 
     16 S16        25.9045   23.5462    3.2460 S.3       12 UNK        -0.2608 
     17 C17        25.8269   25.3064    3.7287 C.3       12 UNK        -0.0989 
     18 CA         26.9304   26.1916    3.0817 C.3       5 UNK         0.0716 
     19 N          26.9970   26.0740    1.6212 N.am      5 UNK        -0.4135 
     20 C          26.1442   26.5366    0.6955 C.2       4 UNK         0.5031 
     21 O          25.0716   27.0845    0.9542 O.2       4 UNK        -0.5229 
     22 CA         26.6288   26.4103   -0.7697 C.3       4 UNK         0.0329 
     23 CB         25.8756   27.3444   -1.7407 C.3       4 UNK        -0.2001 
     24 N          28.0888   26.5886   -0.8734 N.am      4 UNK        -0.4303 
     25 C          28.7739   27.6756   -0.4835 C.2       3 UNK         0.5044 
     26 O          28.2461   28.7484   -0.1967 O.2       3 UNK        -0.5152 
     27 CA         30.2814   27.5232   -0.2369 C.3       3 UNK         0.0319 
     28 CB         30.5198   27.4072    1.2761 C.3       3 UNK        -0.2001 
     29 N          30.8832   26.3561   -0.8773 N.am      3 UNK        -0.4354 
     30 C          31.3605   26.3315   -2.1286 C.2       2 UNK         0.4964 
     31 O          31.2732   27.2758   -2.9136 O.2       2 UNK        -0.5047 
     32 CA         32.0901   25.0478   -2.5701 C.3       2 UNK         0.0288 
     33 CB         33.6129   25.2439   -2.4781 C.3       2 UNK        -0.2113 
     34 N          31.7128   23.8670   -1.7845 N.am      2 UNK        -0.4145 
     35 C          30.5324   23.2418   -1.8951 C.2       1 UNK         0.5006 
     36 O          29.6863   23.5620   -2.7355 O.2       1 UNK        -0.5103 
     37 C          26.8868   27.6485    3.6153 C.2       5 UNK         0.5055 
     38 O          26.5452   27.8382    4.7849 O.2       5 UNK        -0.5220 
     39 N          27.2172   28.6583    2.7931 N.am      6 UNK        -0.4450 
     40 CA         27.1767   30.0675    3.1869 C.3       6 UNK         0.0367 
     41 CB         27.0588   30.9565    1.9389 C.3       6 UNK        -0.1929 
     42 C          28.4152   30.4489    4.0094 C.2       6 UNK         0.5070 
     43 O          29.5396   30.2961    3.5282 O.2       6 UNK        -0.5237 
     44 N          28.1839   30.9984    5.2095 N.am      7 UNK        -0.4739 
     45 CA         29.2153   31.4480    6.1544 C.3       7 UNK         0.0276 
     46 CB         28.5397   31.9000    7.4591 C.3       7 UNK        -0.1927 
     47 C          30.1312   32.5617    5.6132 C.2       7 UNK         0.5013 
     48 O          31.2784   32.6648    6.0459 O.2       7 UNK        -0.5193 
     49 N          29.6078   33.3671    4.6799 N.am      8 UNK        -0.4253 
     50 CA         30.3292   34.4397    3.9940 C.3       8 UNK         0.0242 
     51 CB         29.3088   35.4856    3.5122 C.3       8 UNK        -0.2000 
     52 C          31.1931   33.9493    2.8152 C.2       8 UNK         0.4948 
     53 O          31.9757   34.7455    2.2929 O.2       8 UNK        -0.5275 
     54 N          31.0266   32.6875    2.3923 N.am      9 UNK        -0.4246 
     55 CA         31.7493   32.0771    1.2762 C.3       9 UNK         0.0261 
     56 CB         30.7441   31.3117    0.3920 C.3       9 UNK        -0.1959 
     57 C          32.9080   31.2097    1.8033 C.2       9 UNK         0.5033 
     58 O          33.5528   31.5815    2.7870 O.2       9 UNK        -0.5390 
     59 N          33.1705   30.0726    1.1412 N.am      10 UNK        -0.4215 
     60 CA         34.2914   29.1599    1.4068 C.3       10 UNK         0.0240 
     61 CB         34.3502   28.0860    0.3048 C.3       10 UNK        -0.1982 
     62 C          34.3209   28.5233    2.8128 C.2       10 UNK         0.4970 
     63 O          35.3604   27.9820    3.1921 O.2       10 UNK        -0.4916 
     64 N          33.2186   28.6164    3.5691 N.am      11 UNK        -0.4279 
     65 CA         33.1679   28.2924    5.0036 C.3       11 UNK         0.1003 
     66 C          33.9699   29.2800    5.9030 C.2       11 UNK         0.5709 
     67 N          34.3209   30.4753    5.4402 N.am      11 UNK        -0.7358 
     68 O          34.2859   28.9476    7.0429 O.2       11 UNK        -0.4999 
     69 C69        31.7120   28.1673    5.5197 C.3       12 UNK        -0.0954 
     70 S70        30.7327   26.9263    4.6211 S.3       12 UNK        -0.2268 
     71 C71        30.9159   25.4788    5.6983 C.3       12 UNK         0.0203 
     72 H72        26.1764   22.0526   -0.9442 H         1 UNK         0.0888 
     73 H73        26.3632   21.7636    0.7911 H         1 UNK         0.0888 
     74 H74        25.9337   23.3696    0.2018 H         1 UNK         0.0888 
     75 H75        28.3831   21.0897   -1.0629 H         1 UNK         0.3017 
     76 H76        30.5380   21.1727   -1.4727 H         1 UNK         0.0873 
     77 H77        32.1420   22.1132    0.1872 H         1 UNK         0.0745 
     78 H78        30.8520   23.0044    0.9688 H         1 UNK         0.0745 
     79 H79        32.3712   21.5621    2.9413 H         1 UNK         0.0705 
     80 H80        31.4253   20.3141    3.7113 H         1 UNK         0.0705 
     81 H81        32.1219   23.4927    4.2778 H         1 UNK         0.1334 
     82 H82        28.2925   24.7730    5.7075 H         1 UNK         0.1417 
     83 H83        28.6172   21.1843    3.3809 H         1 UNK         0.1562 
     84 H84        26.4035   23.1588    5.5864 H         1 UNK         0.0748 
     85 H85        26.5542   21.7033    4.6424 H         1 UNK         0.0748 
     86 H86        25.8700   25.3640    4.8176 H         1 UNK         0.0940 
     87 H87        24.8411   25.6840    3.4514 H         1 UNK         0.0940 
     88 H88        27.8939   25.8132    3.4184 H         1 UNK         0.0703 
     89 H89        27.7785   25.5237    1.2748 H         1 UNK         0.3081 
     90 H90        26.4220   25.3853   -1.0778 H         1 UNK         0.0719 
     91 H91        26.2518   27.2446   -2.7586 H         1 UNK         0.0809 
     92 H92        25.9638   28.3918   -1.4509 H         1 UNK         0.0809 
     93 H93        24.8119   27.1049   -1.7629 H         1 UNK         0.0809 
     94 H94        28.6137   25.7376   -1.0332 H         1 UNK         0.2990 
     95 H95        30.7724   28.4270   -0.6014 H         1 UNK         0.0690 
     96 H96        31.5775   27.3445    1.5211 H         1 UNK         0.0788 
     97 H97        30.0379   26.5200    1.6895 H         1 UNK         0.0788 
     98 H98        30.1181   28.2681    1.8112 H         1 UNK         0.0788 
     99 H99        30.9826   25.5284   -0.3083 H         1 UNK         0.2993 
    100 H100       31.8299   24.8683   -3.6159 H         1 UNK         0.0949 
    101 H101       33.9386   25.4153   -1.4513 H         1 UNK         0.0767 
    102 H102       34.1487   24.3749   -2.8607 H         1 UNK         0.0767 
    103 H103       33.9324   26.1042   -3.0683 H         1 UNK         0.0767 
    104 H104       32.3804   23.5422   -1.1001 H         1 UNK         0.3013 
    105 H105       27.5176   28.4639    1.8455 H         1 UNK         0.3121 
    106 H106       26.2806   30.2315    3.7897 H         1 UNK         0.0774 
    107 H107       26.9457   32.0053    2.2155 H         1 UNK         0.0815 
    108 H108       27.9411   30.8835    1.3042 H         1 UNK         0.0815 
    109 H109       26.1924   30.6828    1.3365 H         1 UNK         0.0815 
    110 H110       27.2265   31.0834    5.5213 H         1 UNK         0.2987 
    111 H111       29.8482   30.5916    6.3867 H         1 UNK         0.0949 
    112 H112       27.9655   31.0908    7.9108 H         1 UNK         0.0806 
    113 H113       29.2819   32.2157    8.1939 H         1 UNK         0.0806 
    114 H114       27.8655   32.7417    7.2954 H         1 UNK         0.0806 
    115 H115       28.6524   33.2049    4.3971 H         1 UNK         0.3010 
    116 H116       31.0009   34.9229    4.7070 H         1 UNK         0.0829 
    117 H117       28.7292   35.8879    4.3433 H         1 UNK         0.0813 
    118 H118       29.8088   36.3282    3.0323 H         1 UNK         0.0813 
    119 H119       28.6112   35.0655    2.7865 H         1 UNK         0.0813 
    120 H120       30.4258   32.0633    2.9206 H         1 UNK         0.3038 
    121 H121       32.2021   32.8533    0.6561 H         1 UNK         0.0769 
    122 H122       29.9211   31.9589    0.0884 H         1 UNK         0.0811 
    123 H123       30.3112   30.4593    0.9147 H         1 UNK         0.0811 
    124 H124       31.2064   30.9488   -0.5263 H         1 UNK         0.0811 
    125 H125       32.5915   29.8483    0.3461 H         1 UNK         0.3204 
    126 H126       35.2023   29.7573    1.3307 H         1 UNK         0.0748 
    127 H127       35.2072   27.4263    0.4479 H         1 UNK         0.0771 
    128 H128       33.4612   27.4581    0.2908 H         1 UNK         0.0771 
    129 H129       34.4566   28.5352   -0.6828 H         1 UNK         0.0771 
    130 H130       32.4044   29.0788    3.1939 H         1 UNK         0.2980 
    131 H131       33.6421   27.3174    5.1298 H         1 UNK         0.0545 
    132 H132       34.8363   31.1008    6.0376 H         1 UNK         0.3459 
    133 H133       34.0449   30.7804    4.5113 H         1 UNK         0.3459 
    134 H134       31.6896   27.9298    6.5850 H         1 UNK         0.0616 
    135 H135       31.2041   29.1240    5.4078 H         1 UNK         0.0616 
    136 H136       30.4532   25.6821    6.6652 H         1 UNK         0.0634 
    137 H137       31.9751   25.2980    5.8877 H         1 UNK         0.0634 
@<TRIPOS>BOND
     1    1    2 1    
     2    1   72 1    
     3    1   73 1    
     4    1   74 1    
     5    2    3 2    
     6    2    4 am   BACKBONE|DICT|INTERRES
     7    4    5 1    
     8    4   75 1    
     9    5    6 1    
    10    5   35 1    
    11    5   76 1    
    12    6    7 1    
    13    6   77 1    
    14    6   78 1    
    15    7    8 1    
    16    8    9 1    
    17    8   79 1    
    18    8   80 1    
    19    9   10 ar   
    20    9   14 ar   
    21   10   11 ar   
    22   10   81 1    
    23   11   12 ar   
    24   11   71 1    
    25   12   13 ar   
    26   12   82 1    
    27   13   14 ar   
    28   13   15 1    
    29   14   83 1    
    30   15   16 1    
    31   15   84 1    
    32   15   85 1    
    33   16   17 1    
    34   17   18 1    
    35   17   86 1    
    36   17   87 1    
    37   18   19 1    
    38   18   37 1    
    39   18   88 1    
    40   19   20 am   BACKBONE|DICT|INTERRES
    41   19   89 1    
    42   20   21 2    
    43   20   22 1    
    44   22   23 1    
    45   22   24 1    
    46   22   90 1    
    47   23   91 1    
    48   23   92 1    
    49   23   93 1    
    50   24   25 am   BACKBONE|DICT|INTERRES
    51   24   94 1    
    52   25   26 2    
    53   25   27 1    
    54   27   28 1    
    55   27   29 1    
    56   27   95 1    
    57   28   96 1    
    58   28   97 1    
    59   28   98 1    
    60   29   30 am   BACKBONE|DICT|INTERRES
    61   29   99 1    
    62   30   31 2    
    63   30   32 1    
    64   32   33 1    
    65   32   34 1    
    66   32  100 1    
    67   33  101 1    
    68   33  102 1    
    69   33  103 1    
    70   34   35 am   BACKBONE|DICT|INTERRES
    71   34  104 1    
    72   35   36 2    
    73   37   38 2    
    74   37   39 am   BACKBONE|DICT|INTERRES
    75   39   40 1    
    76   39  105 1    
    77   40   41 1    
    78   40   42 1    
    79   40  106 1    
    80   41  107 1    
    81   41  108 1    
    82   41  109 1    
    83   42   43 2    
    84   42   44 am   BACKBONE|DICT|INTERRES
    85   44   45 1    
    86   44  110 1    
    87   45   46 1    
    88   45   47 1    
    89   45  111 1    
    90   46  112 1    
    91   46  113 1    
    92   46  114 1    
    93   47   48 2    
    94   47   49 am   BACKBONE|DICT|INTERRES
    95   49   50 1    
    96   49  115 1    
    97   50   51 1    
    98   50   52 1    
    99   50  116 1    
   100   51  117 1    
   101   51  118 1    
   102   51  119 1    
   103   52   53 2    
   104   52   54 am   BACKBONE|DICT|INTERRES
   105   54   55 1    
   106   54  120 1    
   107   55   56 1    
   108   55   57 1    
   109   55  121 1    
   110   56  122 1    
   111   56  123 1    
   112   56  124 1    
   113   57   58 2    
   114   57   59 am   BACKBONE|DICT|INTERRES
   115   59   60 1    
   116   59  125 1    
   117   60   61 1    
   118   60   62 1    
   119   60  126 1    
   120   61  127 1    
   121   61  128 1    
   122   61  129 1    
   123   62   63 2    
   124   62   64 am   BACKBONE|DICT|INTERRES
   125   64   65 1    
   126   64  130 1    
   127   65   66 1    
   128   65   69 1    
   129   65  131 1    
   130   66   67 am   BACKBONE|DICT|INTERRES
   131   66   68 2    
   132   67  132 1    
   133   67  133 1    
   134   69   70 1    
   135   69  134 1    
   136   69  135 1    
   137   70   71 1    
   138   71  136 1    
   139   71  137 1    
@<TRIPOS>SUBSTRUCTURE
     1 UNK         1 GROUP             0       ****    0 ROOT    
