@<TRIPOS>MOLECULE
3R136
137   139    1
SMALL
USER_CHARGES


@<TRIPOS>ATOM
      1 CA         28.8139   22.7178   -3.9348 C.3       0 UNK        -0.1979 
      2 C          28.7923   23.1036   -2.4644 C.2       0 UNK         0.4864 
      3 O          28.3678   24.2112   -2.1335 O.2       0 UNK        -0.5359 
      4 N          29.2310   22.1938   -1.5817 N.am      1 UNK        -0.4318 
      5 CA         29.3504   22.3673   -0.1251 C.3       1 UNK         0.0824 
      6 C6         29.8478   21.0720    0.5599 C.3       12 UNK        -0.0944 
      7 S7         31.5937   20.7452    0.1428 S.3       12 UNK        -0.2672 
      8 C8         32.4074   20.8124    1.7743 C.3       12 UNK         0.0333 
      9 C9         32.1804   22.1324    2.5023 C.ar      12 UNK        -0.0807 
     10 C10        32.7764   23.3092    2.0393 C.ar      12 UNK        -0.0894 
     11 C11        32.5845   24.5145    2.7210 C.ar      12 UNK        -0.0804 
     12 C12        31.7965   24.5338    3.8735 C.ar      12 UNK        -0.0824 
     13 C13        31.1741   23.3713    4.3397 C.ar      12 UNK        -0.0762 
     14 C14        31.3822   22.1723    3.6510 C.ar      12 UNK        -0.0782 
     15 C15        30.2862   23.3693    5.5867 C.3       12 UNK         0.0230 
     16 S16        29.4232   24.9433    5.9480 S.3       12 UNK        -0.2608 
     17 C17        28.4627   25.2262    4.4204 C.3       12 UNK        -0.0989 
     18 CA         28.8342   26.5711    3.7328 C.3       5 UNK         0.0716 
     19 N          28.8978   26.4456    2.2706 N.am      5 UNK        -0.4135 
     20 C          29.4578   27.3598    1.4638 C.2       4 UNK         0.5031 
     21 O          29.9791   28.3966    1.8686 O.2       4 UNK        -0.5229 
     22 CA         29.3804   27.1213   -0.0525 C.3       4 UNK         0.0329 
     23 CB         30.5785   26.2906   -0.5340 C.3       4 UNK        -0.2001 
     24 N          28.1296   26.5040   -0.5017 N.am      4 UNK        -0.4303 
     25 C          26.9100   27.0391   -0.3398 C.2       3 UNK         0.5044 
     26 O          26.6959   28.0706    0.2960 O.2       3 UNK        -0.5152 
     27 CA         25.7319   26.2935   -0.9813 C.3       3 UNK         0.0319 
     28 CB         25.7025   26.5213   -2.5016 C.3       3 UNK        -0.2001 
     29 N          25.8125   24.8621   -0.6995 N.am      3 UNK        -0.4354 
     30 C          25.2538   24.2717    0.3663 C.2       2 UNK         0.4964 
     31 O          24.5180   24.8519    1.1653 O.2       2 UNK        -0.5047 
     32 CA         25.5782   22.7833    0.5975 C.3       2 UNK         0.0288 
     33 CB         24.5064   21.8921   -0.0510 C.3       2 UNK        -0.2113 
     34 N          26.9016   22.3755    0.1148 N.am      2 UNK        -0.4145 
     35 C          28.0648   22.8817    0.5509 C.2       1 UNK         0.5006 
     36 O          28.1491   23.7583    1.4112 O.2       1 UNK        -0.5103 
     37 C          27.9295   27.7304    4.2180 C.2       5 UNK         0.5055 
     38 O          28.0611   28.1512    5.3684 O.2       5 UNK        -0.5220 
     39 N          27.0254   28.2283    3.3591 N.am      6 UNK        -0.4450 
     40 CA         26.1432   29.3570    3.6634 C.3       6 UNK         0.0367 
     41 CB         24.8226   29.1914    2.8925 C.3       6 UNK        -0.1929 
     42 C          26.7853   30.7219    3.3523 C.2       6 UNK         0.5070 
     43 O          26.2506   31.7386    3.7977 O.2       6 UNK        -0.5237 
     44 N          27.8911   30.7483    2.5936 N.am      7 UNK        -0.4739 
     45 CA         28.6170   31.9735    2.2538 C.3       7 UNK         0.0276 
     46 CB         29.4328   31.7454    0.9711 C.3       7 UNK        -0.1927 
     47 C          29.5276   32.4072    3.4135 C.2       7 UNK         0.5013 
     48 O          30.1705   31.5600    4.0355 O.2       7 UNK        -0.5193 
     49 N          29.5817   33.7207    3.6722 N.am      8 UNK        -0.4253 
     50 CA         30.4040   34.3144    4.7317 C.3       8 UNK         0.0242 
     51 CB         29.9085   35.7391    5.0295 C.3       8 UNK        -0.2000 
     52 C          31.9041   34.3258    4.3930 C.2       8 UNK         0.4948 
     53 O          32.7286   34.1297    5.2858 O.2       8 UNK        -0.5275 
     54 N          32.2331   34.5426    3.1130 N.am      9 UNK        -0.4246 
     55 CA         33.5995   34.5806    2.5870 C.3       9 UNK         0.0261 
     56 CB         33.6876   35.6828    1.5138 C.3       9 UNK        -0.1959 
     57 C          34.0159   33.1975    2.0540 C.2       9 UNK         0.5033 
     58 O          34.4445   33.0827    0.9037 O.2       9 UNK        -0.5390 
     59 N          33.8599   32.1660    2.8891 N.am      10 UNK        -0.4215 
     60 CA         34.1413   30.7664    2.5827 C.3       10 UNK         0.0240 
     61 CB         33.0060   30.1808    1.7161 C.3       10 UNK        -0.1982 
     62 C          34.2930   29.9852    3.8947 C.2       10 UNK         0.4970 
     63 O          34.1442   30.5577    4.9781 O.2       10 UNK        -0.4916 
     64 N          34.5753   28.6851    3.7612 N.am      11 UNK        -0.4279 
     65 CA         34.5307   27.6721    4.8264 C.3       11 UNK         0.1003 
     66 C          33.1527   27.5723    5.5443 C.2       11 UNK         0.5709 
     67 N          33.1280   27.0437    6.7605 N.am      11 UNK        -0.7358 
     68 O          32.1092   27.9267    5.0032 O.2       11 UNK        -0.4999 
     69 C69        35.0354   26.2729    4.3396 C.3       12 UNK        -0.0954 
     70 S70        34.9716   25.9414    2.5385 S.3       12 UNK        -0.2268 
     71 C71        33.1913   25.8038    2.1909 C.3       12 UNK         0.0203 
     72 H72        29.4415   23.4119   -4.4929 H         1 UNK         0.0888 
     73 H73        29.2014   21.7107   -4.0876 H         1 UNK         0.0888 
     74 H74        27.8066   22.7615   -4.3478 H         1 UNK         0.0888 
     75 H75        29.5752   21.3099   -1.9295 H         1 UNK         0.3017 
     76 H76        30.1026   23.1402    0.0369 H         1 UNK         0.0873 
     77 H77        29.7411   21.1307    1.6439 H         1 UNK         0.0745 
     78 H78        29.2464   20.2149    0.2517 H         1 UNK         0.0745 
     79 H79        33.4790   20.6600    1.6380 H         1 UNK         0.0705 
     80 H80        32.0565   19.9728    2.3765 H         1 UNK         0.0705 
     81 H81        33.3865   23.2871    1.1465 H         1 UNK         0.1334 
     82 H82        31.6531   25.4638    4.3994 H         1 UNK         0.1417 
     83 H83        30.9182   21.2638    4.0109 H         1 UNK         0.1562 
     84 H84        30.9037   23.1103    6.4475 H         1 UNK         0.0748 
     85 H85        29.5312   22.5859    5.5024 H         1 UNK         0.0748 
     86 H86        27.3962   25.1619    4.6455 H         1 UNK         0.0940 
     87 H87        28.6612   24.3877    3.7555 H         1 UNK         0.0940 
     88 H88        29.8443   26.8463    4.0401 H         1 UNK         0.0703 
     89 H89        28.5146   25.5940    1.8670 H         1 UNK         0.3081 
     90 H90        29.4368   28.0985   -0.5370 H         1 UNK         0.0719 
     91 H91        30.5157   26.0747   -1.6007 H         1 UNK         0.0809 
     92 H92        31.5093   26.8341   -0.3700 H         1 UNK         0.0809 
     93 H93        30.6533   25.3440   -0.0004 H         1 UNK         0.0809 
     94 H94        28.2161   25.6527   -1.0552 H         1 UNK         0.2990 
     95 H95        24.8082   26.7021   -0.5656 H         1 UNK         0.0690 
     96 H96        25.6374   27.5851   -2.7341 H         1 UNK         0.0788 
     97 H97        24.8382   26.0370   -2.9561 H         1 UNK         0.0788 
     98 H98        26.5973   26.1347   -2.9910 H         1 UNK         0.0788 
     99 H99        26.4538   24.3276   -1.2744 H         1 UNK         0.2993 
    100 H100       25.5584   22.6151    1.6766 H         1 UNK         0.0949 
    101 H101       24.4987   21.9951   -1.1369 H         1 UNK         0.0767 
    102 H102       24.6667   20.8403    0.1869 H         1 UNK         0.0767 
    103 H103       23.5104   22.1552    0.3086 H         1 UNK         0.0767 
    104 H104       26.9270   21.6739   -0.6109 H         1 UNK         0.3013 
    105 H105       26.9901   27.8757    2.4088 H         1 UNK         0.3121 
    106 H106       25.9039   29.3477    4.7290 H         1 UNK         0.0774 
    107 H107       24.9657   29.2811    1.8158 H         1 UNK         0.0815 
    108 H108       24.1045   29.9583    3.1858 H         1 UNK         0.0815 
    109 H109       24.3619   28.2237    3.0918 H         1 UNK         0.0815 
    110 H110       28.3315   29.8749    2.3301 H         1 UNK         0.2987 
    111 H111       27.8921   32.7666    2.0558 H         1 UNK         0.0949 
    112 H112       30.1674   30.9508    1.0959 H         1 UNK         0.0806 
    113 H113       28.7881   31.4729    0.1354 H         1 UNK         0.0806 
    114 H114       29.9746   32.6473    0.6838 H         1 UNK         0.0806 
    115 H115       29.0156   34.3537    3.1249 H         1 UNK         0.3010 
    116 H116       30.2769   33.7169    5.6375 H         1 UNK         0.0829 
    117 H117       30.4916   36.1942    5.8316 H         1 UNK         0.0813 
    118 H118       29.9915   36.3895    4.1579 H         1 UNK         0.0813 
    119 H119       28.8667   35.7378    5.3505 H         1 UNK         0.0813 
    120 H120       31.4891   34.6536    2.4398 H         1 UNK         0.3038 
    121 H121       34.2984   34.8411    3.3849 H         1 UNK         0.0769 
    122 H122       33.0324   35.4768    0.6665 H         1 UNK         0.0811 
    123 H123       34.7037   35.7716    1.1269 H         1 UNK         0.0811 
    124 H124       33.4131   36.6557    1.9217 H         1 UNK         0.0811 
    125 H125       33.5507   32.3335    3.8414 H         1 UNK         0.3204 
    126 H126       35.0878   30.7052    2.0414 H         1 UNK         0.0748 
    127 H127       32.8425   30.7657    0.8111 H         1 UNK         0.0771 
    128 H128       33.2249   29.1610    1.3987 H         1 UNK         0.0771 
    129 H129       32.0665   30.1517    2.2701 H         1 UNK         0.0771 
    130 H130       34.6901   28.3064    2.8329 H         1 UNK         0.2980 
    131 H131       35.2295   28.0231    5.5883 H         1 UNK         0.0545 
    132 H132       32.2423   26.9568    7.2331 H         1 UNK         0.3459 
    133 H133       33.9724   26.7362    7.2169 H         1 UNK         0.3459 
    134 H134       36.0857   26.1770    4.6182 H         1 UNK         0.0616 
    135 H135       34.5394   25.4497    4.8578 H         1 UNK         0.0616 
    136 H136       32.6649   26.6752    2.5833 H         1 UNK         0.0634 
    137 H137       33.0590   25.8351    1.1096 H         1 UNK         0.0634 
@<TRIPOS>BOND
     1    1    2 1    
     2    1   72 1    
     3    1   73 1    
     4    1   74 1    
     5    2    3 2    
     6    2    4 am   BACKBONE|DICT|INTERRES
     7    4    5 1    
     8    4   75 1    
     9    5    6 1    
    10    5   35 1    
    11    5   76 1    
    12    6    7 1    
    13    6   77 1    
    14    6   78 1    
    15    7    8 1    
    16    8    9 1    
    17    8   79 1    
    18    8   80 1    
    19    9   10 ar   
    20    9   14 ar   
    21   10   11 ar   
    22   10   81 1    
    23   11   12 ar   
    24   11   71 1    
    25   12   13 ar   
    26   12   82 1    
    27   13   14 ar   
    28   13   15 1    
    29   14   83 1    
    30   15   16 1    
    31   15   84 1    
    32   15   85 1    
    33   16   17 1    
    34   17   18 1    
    35   17   86 1    
    36   17   87 1    
    37   18   19 1    
    38   18   37 1    
    39   18   88 1    
    40   19   20 am   BACKBONE|DICT|INTERRES
    41   19   89 1    
    42   20   21 2    
    43   20   22 1    
    44   22   23 1    
    45   22   24 1    
    46   22   90 1    
    47   23   91 1    
    48   23   92 1    
    49   23   93 1    
    50   24   25 am   BACKBONE|DICT|INTERRES
    51   24   94 1    
    52   25   26 2    
    53   25   27 1    
    54   27   28 1    
    55   27   29 1    
    56   27   95 1    
    57   28   96 1    
    58   28   97 1    
    59   28   98 1    
    60   29   30 am   BACKBONE|DICT|INTERRES
    61   29   99 1    
    62   30   31 2    
    63   30   32 1    
    64   32   33 1    
    65   32   34 1    
    66   32  100 1    
    67   33  101 1    
    68   33  102 1    
    69   33  103 1    
    70   34   35 am   BACKBONE|DICT|INTERRES
    71   34  104 1    
    72   35   36 2    
    73   37   38 2    
    74   37   39 am   BACKBONE|DICT|INTERRES
    75   39   40 1    
    76   39  105 1    
    77   40   41 1    
    78   40   42 1    
    79   40  106 1    
    80   41  107 1    
    81   41  108 1    
    82   41  109 1    
    83   42   43 2    
    84   42   44 am   BACKBONE|DICT|INTERRES
    85   44   45 1    
    86   44  110 1    
    87   45   46 1    
    88   45   47 1    
    89   45  111 1    
    90   46  112 1    
    91   46  113 1    
    92   46  114 1    
    93   47   48 2    
    94   47   49 am   BACKBONE|DICT|INTERRES
    95   49   50 1    
    96   49  115 1    
    97   50   51 1    
    98   50   52 1    
    99   50  116 1    
   100   51  117 1    
   101   51  118 1    
   102   51  119 1    
   103   52   53 2    
   104   52   54 am   BACKBONE|DICT|INTERRES
   105   54   55 1    
   106   54  120 1    
   107   55   56 1    
   108   55   57 1    
   109   55  121 1    
   110   56  122 1    
   111   56  123 1    
   112   56  124 1    
   113   57   58 2    
   114   57   59 am   BACKBONE|DICT|INTERRES
   115   59   60 1    
   116   59  125 1    
   117   60   61 1    
   118   60   62 1    
   119   60  126 1    
   120   61  127 1    
   121   61  128 1    
   122   61  129 1    
   123   62   63 2    
   124   62   64 am   BACKBONE|DICT|INTERRES
   125   64   65 1    
   126   64  130 1    
   127   65   66 1    
   128   65   69 1    
   129   65  131 1    
   130   66   67 am   BACKBONE|DICT|INTERRES
   131   66   68 2    
   132   67  132 1    
   133   67  133 1    
   134   69   70 1    
   135   69  134 1    
   136   69  135 1    
   137   70   71 1    
   138   71  136 1    
   139   71  137 1    
@<TRIPOS>SUBSTRUCTURE
     1 UNK         1 GROUP             0       ****    0 ROOT    
