@<TRIPOS>MOLECULE
3R136
137   139    1
SMALL
USER_CHARGES


@<TRIPOS>ATOM
      1 CA         28.3870   20.3179   -3.2733 C.3       0 UNK        -0.1979 
      2 C          28.7907   21.7141   -2.8246 C.2       0 UNK         0.4864 
      3 O          28.8175   22.6372   -3.6401 O.2       0 UNK        -0.5359 
      4 N          29.0889   21.8854   -1.5303 N.am      1 UNK        -0.4318 
      5 CA         29.5434   23.1327   -0.8982 C.3       1 UNK         0.0824 
      6 C6         30.2928   22.8461    0.4277 C.3       12 UNK        -0.0944 
      7 S7         31.7583   21.7707    0.2428 S.3       12 UNK        -0.2672 
      8 C8         33.0177   22.6494    1.2472 C.3       12 UNK         0.0333 
      9 C9         32.6546   22.9163    2.7138 C.ar      12 UNK        -0.0807 
     10 C10        33.4345   23.8182    3.4472 C.ar      12 UNK        -0.0894 
     11 C11        33.1114   24.1483    4.7730 C.ar      12 UNK        -0.0804 
     12 C12        31.9887   23.5574    5.3611 C.ar      12 UNK        -0.0824 
     13 C13        31.1998   22.6559    4.6439 C.ar      12 UNK        -0.0762 
     14 C14        31.5608   22.3107    3.3419 C.ar      12 UNK        -0.0782 
     15 C15        29.9278   22.0805    5.2483 C.3       12 UNK         0.0230 
     16 S16        28.6191   23.3378    5.4476 S.3       12 UNK        -0.2608 
     17 C17        28.5752   24.2115    3.8356 C.3       12 UNK        -0.0989 
     18 CA         29.2250   25.6210    3.8990 C.3       5 UNK         0.0716 
     19 N          29.5220   26.1601    2.5617 N.am      5 UNK        -0.4135 
     20 C          30.3243   27.2148    2.3387 C.2       4 UNK         0.5031 
     21 O          30.9042   27.8385    3.2257 O.2       4 UNK        -0.5229 
     22 CA         30.4704   27.7062    0.8929 C.3       4 UNK         0.0329 
     23 CB         31.3321   26.7533    0.0494 C.3       4 UNK        -0.2001 
     24 N          29.1844   27.9317    0.2413 N.am      4 UNK        -0.4303 
     25 C          28.2843   28.8630    0.5781 C.2       3 UNK         0.5044 
     26 O          28.4637   29.6841    1.4809 O.2       3 UNK        -0.5152 
     27 CA         26.9594   28.8926   -0.2137 C.3       3 UNK         0.0319 
     28 CB         27.0244   29.9243   -1.3570 C.3       3 UNK        -0.2001 
     29 N          26.5005   27.5748   -0.6915 N.am      3 UNK        -0.4354 
     30 C          27.0692   26.7809   -1.6109 C.2       2 UNK         0.4964 
     31 O          28.0578   27.0930   -2.2778 O.2       2 UNK        -0.5047 
     32 CA         26.4927   25.3639   -1.7528 C.3       2 UNK         0.0288 
     33 CB         25.7037   25.2208   -3.0638 C.3       2 UNK        -0.2113 
     34 N          27.5668   24.3679   -1.7203 N.am      2 UNK        -0.4145 
     35 C          28.3918   24.1493   -0.6863 C.2       1 UNK         0.5006 
     36 O          28.2738   24.7270    0.3999 O.2       1 UNK        -0.5103 
     37 C          28.3750   26.5996    4.7399 C.2       5 UNK         0.5055 
     38 O          28.5587   26.6842    5.9549 O.2       5 UNK        -0.5220 
     39 N          27.4856   27.3508    4.0731 N.am      6 UNK        -0.4450 
     40 CA         26.6063   28.3581    4.6772 C.3       6 UNK         0.0367 
     41 CB         25.5194   28.7427    3.6595 C.3       6 UNK        -0.1929 
     42 C          27.3367   29.6196    5.1810 C.2       6 UNK         0.5070 
     43 O          26.6958   30.4644    5.8065 O.2       6 UNK        -0.5237 
     44 N          28.6396   29.7377    4.8837 N.am      7 UNK        -0.4739 
     45 CA         29.5370   30.8513    5.2097 C.3       7 UNK         0.0276 
     46 CB         29.6563   31.0634    6.7343 C.3       7 UNK        -0.1927 
     47 C          29.2105   32.1469    4.4464 C.2       7 UNK         0.5013 
     48 O          29.6074   33.2295    4.8811 O.2       7 UNK        -0.5193 
     49 N          28.5127   32.0151    3.3109 N.am      8 UNK        -0.4253 
     50 CA         28.2201   33.1103    2.3911 C.3       8 UNK         0.0242 
     51 CB         26.8817   32.8450    1.6826 C.3       8 UNK        -0.2000 
     52 C          29.3603   33.2872    1.3794 C.2       8 UNK         0.4948 
     53 O          29.7430   34.4243    1.1015 O.2       8 UNK        -0.5275 
     54 N          29.8840   32.1673    0.8591 N.am      9 UNK        -0.4246 
     55 CA         30.9531   32.1462   -0.1433 C.3       9 UNK         0.0261 
     56 CB         30.5199   31.2577   -1.3223 C.3       9 UNK        -0.1959 
     57 C          32.3064   31.6684    0.4088 C.2       9 UNK         0.5033 
     58 O          33.3128   31.8700   -0.2735 O.2       9 UNK        -0.5390 
     59 N          32.3363   31.0368    1.5918 N.am      10 UNK        -0.4215 
     60 CA         33.5474   30.4534    2.1753 C.3       10 UNK         0.0240 
     61 CB         33.9244   29.1332    1.4572 C.3       10 UNK        -0.1982 
     62 C          33.4191   30.3193    3.7032 C.2       10 UNK         0.4970 
     63 O          32.9000   31.2270    4.3526 O.2       10 UNK        -0.4916 
     64 N          33.9507   29.2167    4.2385 N.am      11 UNK        -0.4279 
     65 CA         34.1041   28.8752    5.6590 C.3       11 UNK         0.1003 
     66 C          32.7991   28.6070    6.4596 C.2       11 UNK         0.5709 
     67 N          31.6861   28.2531    5.8360 N.am      11 UNK        -0.7358 
     68 O          32.8039   28.7187    7.6831 O.2       11 UNK        -0.4999 
     69 C69        35.1237   27.7104    5.8299 C.3       12 UNK        -0.0954 
     70 S70        34.8878   26.3454    4.6323 S.3       12 UNK        -0.2268 
     71 C71        33.9326   25.1356    5.6066 C.3       12 UNK         0.0203 
     72 H72        27.3789   20.3333   -3.6866 H         1 UNK         0.0888 
     73 H73        29.0674   19.9617   -4.0462 H         1 UNK         0.0888 
     74 H74        28.4057   19.6038   -2.4501 H         1 UNK         0.0888 
     75 H75        29.0362   21.0901   -0.9097 H         1 UNK         0.3017 
     76 H76        30.2505   23.6146   -1.5769 H         1 UNK         0.0873 
     77 H77        30.6146   23.7770    0.8969 H         1 UNK         0.0745 
     78 H78        29.6110   22.3691    1.1331 H         1 UNK         0.0745 
     79 H79        33.9413   22.0698    1.2199 H         1 UNK         0.0705 
     80 H80        33.2353   23.5993    0.7561 H         1 UNK         0.0705 
     81 H81        34.2925   24.2692    2.9694 H         1 UNK         0.1334 
     82 H82        31.7085   23.8185    6.3728 H         1 UNK         0.1417 
     83 H83        30.9551   21.5907    2.8132 H         1 UNK         0.1562 
     84 H84        30.1543   21.6465    6.2231 H         1 UNK         0.0748 
     85 H85        29.5391   21.2658    4.6353 H         1 UNK         0.0748 
     86 H86        27.5388   24.2769    3.4986 H         1 UNK         0.0940 
     87 H87        29.0796   23.5991    3.0902 H         1 UNK         0.0940 
     88 H88        30.1857   25.5230    4.4086 H         1 UNK         0.0703 
     89 H89        29.0693   25.7041    1.7716 H         1 UNK         0.3081 
     90 H90        30.9837   28.6674    0.9320 H         1 UNK         0.0719 
     91 H91        32.2469   26.4718    0.5727 H         1 UNK         0.0809 
     92 H92        31.6277   27.2225   -0.8891 H         1 UNK         0.0809 
     93 H93        30.8035   25.8349   -0.1951 H         1 UNK         0.0809 
     94 H94        28.9642   27.3522   -0.5620 H         1 UNK         0.2990 
     95 H95        26.1932   29.2348    0.4820 H         1 UNK         0.0690 
     96 H96        26.0714   29.9940   -1.8812 H         1 UNK         0.0788 
     97 H97        27.7924   29.6788   -2.0907 H         1 UNK         0.0788 
     98 H98        27.2560   30.9188   -0.9754 H         1 UNK         0.0788 
     99 H99        25.7030   27.2040   -0.1927 H         1 UNK         0.2993 
    100 H100       25.8224   25.1605   -0.9149 H         1 UNK         0.0949 
    101 H101       25.2678   24.2259   -3.1578 H         1 UNK         0.0767 
    102 H102       24.8843   25.9397   -3.1074 H         1 UNK         0.0767 
    103 H103       26.3368   25.3931   -3.9355 H         1 UNK         0.0767 
    104 H104       27.7784   23.8831   -2.5879 H         1 UNK         0.3013 
    105 H105       27.4167   27.2303    3.0740 H         1 UNK         0.3121 
    106 H106       26.1200   27.9018    5.5419 H         1 UNK         0.0774 
    107 H107       25.9402   29.2742    2.8067 H         1 UNK         0.0815 
    108 H108       24.7781   29.4018    4.1135 H         1 UNK         0.0815 
    109 H109       24.9860   27.8673    3.2888 H         1 UNK         0.0815 
    110 H110       29.0635   28.9888    4.3514 H         1 UNK         0.2987 
    111 H111       30.5152   30.5408    4.8491 H         1 UNK         0.0949 
    112 H112       28.7448   31.4836    7.1598 H         1 UNK         0.0806 
    113 H113       29.8700   30.1284    7.2514 H         1 UNK         0.0806 
    114 H114       30.4700   31.7515    6.9666 H         1 UNK         0.0806 
    115 H115       28.2604   31.0815    3.0057 H         1 UNK         0.3010 
    116 H116       28.1215   34.0425    2.9521 H         1 UNK         0.0829 
    117 H117       26.8850   31.8987    1.1432 H         1 UNK         0.0813 
    118 H118       26.0590   32.8151    2.3972 H         1 UNK         0.0813 
    119 H119       26.6572   33.6330    0.9625 H         1 UNK         0.0813 
    120 H120       29.4746   31.2746    1.1210 H         1 UNK         0.3038 
    121 H121       31.1168   33.1513   -0.5379 H         1 UNK         0.0769 
    122 H122       31.2684   31.2717   -2.1158 H         1 UNK         0.0811 
    123 H123       30.3885   30.2184   -1.0242 H         1 UNK         0.0811 
    124 H124       29.5848   31.6074   -1.7593 H         1 UNK         0.0811 
    125 H125       31.4976   30.9717    2.1502 H         1 UNK         0.3204 
    126 H126       34.3647   31.1607    2.0186 H         1 UNK         0.0748 
    127 H127       34.9291   28.8077    1.7301 H         1 UNK         0.0771 
    128 H128       33.2379   28.3262    1.7083 H         1 UNK         0.0771 
    129 H129       33.9210   29.2440    0.3729 H         1 UNK         0.0771 
    130 H130       34.3107   28.5143    3.6094 H         1 UNK         0.2980 
    131 H131       34.5453   29.7549    6.1313 H         1 UNK         0.0545 
    132 H132       30.8607   28.0677    6.3818 H         1 UNK         0.3459 
    133 H133       31.6504   28.1372    4.8256 H         1 UNK         0.3459 
    134 H134       36.1300   28.0987    5.6663 H         1 UNK         0.0616 
    135 H135       35.1305   27.3186    6.8490 H         1 UNK         0.0616 
    136 H136       34.6188   24.5782    6.2451 H         1 UNK         0.0634 
    137 H137       33.2614   25.6813    6.2710 H         1 UNK         0.0634 
@<TRIPOS>BOND
     1    1    2 1    
     2    1   72 1    
     3    1   73 1    
     4    1   74 1    
     5    2    3 2    
     6    2    4 am   BACKBONE|DICT|INTERRES
     7    4    5 1    
     8    4   75 1    
     9    5    6 1    
    10    5   35 1    
    11    5   76 1    
    12    6    7 1    
    13    6   77 1    
    14    6   78 1    
    15    7    8 1    
    16    8    9 1    
    17    8   79 1    
    18    8   80 1    
    19    9   10 ar   
    20    9   14 ar   
    21   10   11 ar   
    22   10   81 1    
    23   11   12 ar   
    24   11   71 1    
    25   12   13 ar   
    26   12   82 1    
    27   13   14 ar   
    28   13   15 1    
    29   14   83 1    
    30   15   16 1    
    31   15   84 1    
    32   15   85 1    
    33   16   17 1    
    34   17   18 1    
    35   17   86 1    
    36   17   87 1    
    37   18   19 1    
    38   18   37 1    
    39   18   88 1    
    40   19   20 am   BACKBONE|DICT|INTERRES
    41   19   89 1    
    42   20   21 2    
    43   20   22 1    
    44   22   23 1    
    45   22   24 1    
    46   22   90 1    
    47   23   91 1    
    48   23   92 1    
    49   23   93 1    
    50   24   25 am   BACKBONE|DICT|INTERRES
    51   24   94 1    
    52   25   26 2    
    53   25   27 1    
    54   27   28 1    
    55   27   29 1    
    56   27   95 1    
    57   28   96 1    
    58   28   97 1    
    59   28   98 1    
    60   29   30 am   BACKBONE|DICT|INTERRES
    61   29   99 1    
    62   30   31 2    
    63   30   32 1    
    64   32   33 1    
    65   32   34 1    
    66   32  100 1    
    67   33  101 1    
    68   33  102 1    
    69   33  103 1    
    70   34   35 am   BACKBONE|DICT|INTERRES
    71   34  104 1    
    72   35   36 2    
    73   37   38 2    
    74   37   39 am   BACKBONE|DICT|INTERRES
    75   39   40 1    
    76   39  105 1    
    77   40   41 1    
    78   40   42 1    
    79   40  106 1    
    80   41  107 1    
    81   41  108 1    
    82   41  109 1    
    83   42   43 2    
    84   42   44 am   BACKBONE|DICT|INTERRES
    85   44   45 1    
    86   44  110 1    
    87   45   46 1    
    88   45   47 1    
    89   45  111 1    
    90   46  112 1    
    91   46  113 1    
    92   46  114 1    
    93   47   48 2    
    94   47   49 am   BACKBONE|DICT|INTERRES
    95   49   50 1    
    96   49  115 1    
    97   50   51 1    
    98   50   52 1    
    99   50  116 1    
   100   51  117 1    
   101   51  118 1    
   102   51  119 1    
   103   52   53 2    
   104   52   54 am   BACKBONE|DICT|INTERRES
   105   54   55 1    
   106   54  120 1    
   107   55   56 1    
   108   55   57 1    
   109   55  121 1    
   110   56  122 1    
   111   56  123 1    
   112   56  124 1    
   113   57   58 2    
   114   57   59 am   BACKBONE|DICT|INTERRES
   115   59   60 1    
   116   59  125 1    
   117   60   61 1    
   118   60   62 1    
   119   60  126 1    
   120   61  127 1    
   121   61  128 1    
   122   61  129 1    
   123   62   63 2    
   124   62   64 am   BACKBONE|DICT|INTERRES
   125   64   65 1    
   126   64  130 1    
   127   65   66 1    
   128   65   69 1    
   129   65  131 1    
   130   66   67 am   BACKBONE|DICT|INTERRES
   131   66   68 2    
   132   67  132 1    
   133   67  133 1    
   134   69   70 1    
   135   69  134 1    
   136   69  135 1    
   137   70   71 1    
   138   71  136 1    
   139   71  137 1    
@<TRIPOS>SUBSTRUCTURE
     1 UNK         1 GROUP             0       ****    0 ROOT    
