@<TRIPOS>MOLECULE
3R136
137   139    1
SMALL
USER_CHARGES


@<TRIPOS>ATOM
      1 CA         24.8608   26.2794    2.9428 C.3       0 UNK        -0.1979 
      2 C          25.5563   24.9334    2.8083 C.2       0 UNK         0.4864 
      3 O          24.9427   23.8955    3.0620 O.2       0 UNK        -0.5359 
      4 N          26.8265   24.9422    2.3872 N.am      1 UNK        -0.4318 
      5 CA         27.6552   23.7613    2.1328 C.3       1 UNK         0.0824 
      6 C6         29.1427   24.1333    1.9188 C.3       12 UNK        -0.0944 
      7 S7         29.9221   24.7077    3.4669 S.3       12 UNK        -0.2672 
      8 C8         29.9702   26.5136    3.2469 C.3       12 UNK         0.0333 
      9 C9         31.1252   26.9513    2.3576 C.ar      12 UNK        -0.0807 
     10 C10        32.4089   27.0970    2.8895 C.ar      12 UNK        -0.0894 
     11 C11        33.4645   27.5287    2.0840 C.ar      12 UNK        -0.0804 
     12 C12        33.2343   27.7972    0.7311 C.ar      12 UNK        -0.0824 
     13 C13        31.9567   27.6509    0.1795 C.ar      12 UNK        -0.0762 
     14 C14        30.9100   27.2242    1.0050 C.ar      12 UNK        -0.0782 
     15 C15        31.7496   27.9281   -1.3102 C.3       12 UNK         0.0230 
     16 S16        30.2001   28.8084   -1.7129 S.3       12 UNK        -0.2608 
     17 C17        29.0530   27.4145   -2.0039 C.3       12 UNK        -0.0989 
     18 CA         27.5801   27.6853   -1.5935 C.3       5 UNK         0.0716 
     19 N          26.7435   26.5200   -1.8610 N.am      5 UNK        -0.4135 
     20 C          26.2433   26.1918   -3.0565 C.2       4 UNK         0.5031 
     21 O          26.4010   26.8741   -4.0702 O.2       4 UNK        -0.5229 
     22 CA         25.4489   24.8821   -3.1633 C.3       4 UNK         0.0329 
     23 CB         26.3570   23.7599   -3.6940 C.3       4 UNK        -0.2001 
     24 N          24.8790   24.4513   -1.8854 N.am      4 UNK        -0.4303 
     25 C          23.5904   24.5849   -1.5368 C.2       3 UNK         0.5044 
     26 O          22.7718   25.2133   -2.2102 O.2       3 UNK        -0.5152 
     27 CA         23.1228   23.9046   -0.2267 C.3       3 UNK         0.0319 
     28 CB         21.6887   23.3453   -0.3358 C.3       3 UNK        -0.2001 
     29 N          24.0427   22.8769    0.2808 N.am      3 UNK        -0.4354 
     30 C          24.4619   21.7637   -0.3474 C.2       2 UNK         0.4964 
     31 O          23.9788   21.3520   -1.4030 O.2       2 UNK        -0.5047 
     32 CA         25.6617   21.0161    0.2795 C.3       2 UNK         0.0288 
     33 CB         26.5705   20.3761   -0.7924 C.3       2 UNK        -0.2113 
     34 N          26.4623   21.8421    1.1982 N.am      2 UNK        -0.4145 
     35 C          27.0771   23.0051    0.9243 C.2       1 UNK         0.5006 
     36 O          27.1086   23.5301   -0.1927 O.2       1 UNK        -0.5103 
     37 C          27.4105   28.0297   -0.1062 C.2       5 UNK         0.5055 
     38 O          27.2713   27.1201    0.7138 O.2       5 UNK        -0.5220 
     39 N          27.4523   29.3229    0.2228 N.am      6 UNK        -0.4450 
     40 CA         27.3510   29.8443    1.5819 C.3       6 UNK         0.0367 
     41 CB         25.8867   30.2141    1.8888 C.3       6 UNK        -0.1929 
     42 C          28.3150   31.0297    1.7065 C.2       6 UNK         0.5070 
     43 O          27.8809   32.1830    1.7081 O.2       6 UNK        -0.5237 
     44 N          29.6160   30.7169    1.7467 N.am      7 UNK        -0.4739 
     45 CA         30.7071   31.6798    1.9120 C.3       7 UNK         0.0276 
     46 CB         31.9458   31.1584    1.1555 C.3       7 UNK        -0.1927 
     47 C          30.9724   31.9649    3.4064 C.2       7 UNK         0.5013 
     48 O          30.0305   32.0352    4.1981 O.2       7 UNK        -0.5193 
     49 N          32.2506   32.1250    3.7773 N.am      8 UNK        -0.4253 
     50 CA         32.7079   32.4241    5.1393 C.3       8 UNK         0.0242 
     51 CB         34.1771   32.8768    5.0785 C.3       8 UNK        -0.2000 
     52 C          32.5515   31.2636    6.1414 C.2       8 UNK         0.4948 
     53 O          32.7293   31.4902    7.3398 O.2       8 UNK        -0.5275 
     54 N          32.2638   30.0483    5.6493 N.am      9 UNK        -0.4246 
     55 CA         32.1673   28.7698    6.3673 C.3       9 UNK         0.0261 
     56 CB         31.0987   28.7944    7.4793 C.3       9 UNK        -0.1959 
     57 C          33.5353   28.2931    6.8785 C.2       9 UNK         0.5033 
     58 O          34.0383   27.2708    6.4115 O.2       9 UNK        -0.5390 
     59 N          34.1396   29.0754    7.7782 N.am      10 UNK        -0.4215 
     60 CA         35.5186   28.9340    8.2361 C.3       10 UNK         0.0240 
     61 CB         35.6099   29.4067    9.6990 C.3       10 UNK        -0.1982 
     62 C          36.4351   29.7309    7.2926 C.2       10 UNK         0.4970 
     63 O          36.9724   30.7690    7.6825 O.2       10 UNK        -0.4916 
     64 N          36.5521   29.2524    6.0479 N.am      11 UNK        -0.4279 
     65 CA         37.3138   29.8992    4.9663 C.3       11 UNK         0.1003 
     66 C          38.8601   29.8954    5.1543 C.2       11 UNK         0.5709 
     67 N          39.4218   29.0919    6.0502 N.am      11 UNK        -0.7358 
     68 O          39.5621   30.6407    4.4749 O.2       11 UNK        -0.4999 
     69 C69        36.9362   29.3334    3.5721 C.3       12 UNK        -0.0954 
     70 S70        35.1492   29.4088    3.2033 S.3       12 UNK        -0.2268 
     71 C71        34.8564   27.6947    2.6702 C.3       12 UNK         0.0203 
     72 H72        25.5761   27.1016    2.9383 H         1 UNK         0.0888 
     73 H73        24.1638   26.4285    2.1190 H         1 UNK         0.0888 
     74 H74        24.3030   26.3245    3.8777 H         1 UNK         0.0888 
     75 H75        27.2021   25.8179    2.0312 H         1 UNK         0.3017 
     76 H76        27.5912   23.1122    3.0090 H         1 UNK         0.0873 
     77 H77        29.7083   23.2628    1.5812 H         1 UNK         0.0745 
     78 H78        29.2485   24.8832    1.1340 H         1 UNK         0.0745 
     79 H79        29.0175   26.8632    2.8476 H         1 UNK         0.0705 
     80 H80        30.0718   26.9798    4.2277 H         1 UNK         0.0705 
     81 H81        32.5929   26.8637    3.9282 H         1 UNK         0.1334 
     82 H82        34.0561   28.1242    0.1085 H         1 UNK         0.1417 
     83 H83        29.9210   27.0952    0.6011 H         1 UNK         0.1562 
     84 H84        31.7983   26.9881   -1.8614 H         1 UNK         0.0748 
     85 H85        32.5715   28.5395   -1.6860 H         1 UNK         0.0748 
     86 H86        29.4215   26.5155   -1.5071 H         1 UNK         0.0940 
     87 H87        29.0945   27.1881   -3.0706 H         1 UNK         0.0940 
     88 H88        27.1984   28.5274   -2.1753 H         1 UNK         0.0703 
     89 H89        26.5712   25.9303   -1.0562 H         1 UNK         0.3081 
     90 H90        24.6526   25.0410   -3.8936 H         1 UNK         0.0719 
     91 H91        26.7800   24.0235   -4.6644 H         1 UNK         0.0809 
     92 H92        27.1893   23.5592   -3.0177 H         1 UNK         0.0809 
     93 H93        25.8017   22.8305   -3.8237 H         1 UNK         0.0809 
     94 H94        25.5077   23.9510   -1.2635 H         1 UNK         0.2990 
     95 H95        23.1104   24.6919    0.5279 H         1 UNK         0.0690 
     96 H96        21.3712   22.8833    0.5990 H         1 UNK         0.0788 
     97 H97        21.6043   22.5981   -1.1254 H         1 UNK         0.0788 
     98 H98        20.9739   24.1375   -0.5616 H         1 UNK         0.0788 
     99 H99        24.4758   23.0979    1.1720 H         1 UNK         0.2993 
    100 H100       25.2336   20.2114    0.8793 H         1 UNK         0.0949 
    101 H101       26.9744   21.1222   -1.4780 H         1 UNK         0.0767 
    102 H102       27.4095   19.8491   -0.3380 H         1 UNK         0.0767 
    103 H103       26.0208   19.6489   -1.3913 H         1 UNK         0.0767 
    104 H104       26.4526   21.5360    2.1622 H         1 UNK         0.3013 
    105 H105       27.6344   30.0097   -0.4975 H         1 UNK         0.3121 
    106 H106       27.6716   29.0898    2.3039 H         1 UNK         0.0774 
    107 H107       25.5038   30.9614    1.1929 H         1 UNK         0.0815 
    108 H108       25.2366   29.3415    1.8298 H         1 UNK         0.0815 
    109 H109       25.7917   30.6236    2.8952 H         1 UNK         0.0815 
    110 H110       29.8808   29.7430    1.7201 H         1 UNK         0.2987 
    111 H111       30.4163   32.6291    1.4566 H         1 UNK         0.0949 
    112 H112       31.6962   30.8849    0.1301 H         1 UNK         0.0806 
    113 H113       32.7277   31.9162    1.0939 H         1 UNK         0.0806 
    114 H114       32.3709   30.2784    1.6375 H         1 UNK         0.0806 
    115 H115       32.9678   32.0409    3.0710 H         1 UNK         0.3010 
    116 H116       32.1098   33.2546    5.5204 H         1 UNK         0.0829 
    117 H117       34.8250   32.0910    4.6897 H         1 UNK         0.0813 
    118 H118       34.5488   33.1411    6.0697 H         1 UNK         0.0813 
    119 H119       34.2972   33.7565    4.4460 H         1 UNK         0.0813 
    120 H120       32.1799   29.9801    4.6452 H         1 UNK         0.3038 
    121 H121       31.8300   28.0409    5.6330 H         1 UNK         0.0769 
    122 H122       30.1261   29.0861    7.0829 H         1 UNK         0.0811 
    123 H123       31.3482   29.4822    8.2871 H         1 UNK         0.0811 
    124 H124       30.9832   27.8054    7.9244 H         1 UNK         0.0811 
    125 H125       33.6763   29.9563    7.9917 H         1 UNK         0.3204 
    126 H126       35.8219   27.8854    8.1995 H         1 UNK         0.0748 
    127 H127       35.3031   30.4478    9.8097 H         1 UNK         0.0771 
    128 H128       34.9772   28.8020   10.3490 H         1 UNK         0.0771 
    129 H129       36.6313   29.3242   10.0730 H         1 UNK         0.0771 
    130 H130       36.0490   28.4108    5.8014 H         1 UNK         0.2980 
    131 H131       37.0250   30.9518    4.9716 H         1 UNK         0.0545 
    132 H132       40.4231   29.1028    6.1636 H         1 UNK         0.3459 
    133 H133       38.8563   28.4760    6.6114 H         1 UNK         0.3459 
    134 H134       37.2830   28.3019    3.4864 H         1 UNK         0.0616 
    135 H135       37.4492   29.8893    2.7851 H         1 UNK         0.0616 
    136 H136       34.9950   27.0247    3.5204 H         1 UNK         0.0634 
    137 H137       35.6026   27.4123    1.9258 H         1 UNK         0.0634 
@<TRIPOS>BOND
     1    1    2 1    
     2    1   72 1    
     3    1   73 1    
     4    1   74 1    
     5    2    3 2    
     6    2    4 am   BACKBONE|DICT|INTERRES
     7    4    5 1    
     8    4   75 1    
     9    5    6 1    
    10    5   35 1    
    11    5   76 1    
    12    6    7 1    
    13    6   77 1    
    14    6   78 1    
    15    7    8 1    
    16    8    9 1    
    17    8   79 1    
    18    8   80 1    
    19    9   10 ar   
    20    9   14 ar   
    21   10   11 ar   
    22   10   81 1    
    23   11   12 ar   
    24   11   71 1    
    25   12   13 ar   
    26   12   82 1    
    27   13   14 ar   
    28   13   15 1    
    29   14   83 1    
    30   15   16 1    
    31   15   84 1    
    32   15   85 1    
    33   16   17 1    
    34   17   18 1    
    35   17   86 1    
    36   17   87 1    
    37   18   19 1    
    38   18   37 1    
    39   18   88 1    
    40   19   20 am   BACKBONE|DICT|INTERRES
    41   19   89 1    
    42   20   21 2    
    43   20   22 1    
    44   22   23 1    
    45   22   24 1    
    46   22   90 1    
    47   23   91 1    
    48   23   92 1    
    49   23   93 1    
    50   24   25 am   BACKBONE|DICT|INTERRES
    51   24   94 1    
    52   25   26 2    
    53   25   27 1    
    54   27   28 1    
    55   27   29 1    
    56   27   95 1    
    57   28   96 1    
    58   28   97 1    
    59   28   98 1    
    60   29   30 am   BACKBONE|DICT|INTERRES
    61   29   99 1    
    62   30   31 2    
    63   30   32 1    
    64   32   33 1    
    65   32   34 1    
    66   32  100 1    
    67   33  101 1    
    68   33  102 1    
    69   33  103 1    
    70   34   35 am   BACKBONE|DICT|INTERRES
    71   34  104 1    
    72   35   36 2    
    73   37   38 2    
    74   37   39 am   BACKBONE|DICT|INTERRES
    75   39   40 1    
    76   39  105 1    
    77   40   41 1    
    78   40   42 1    
    79   40  106 1    
    80   41  107 1    
    81   41  108 1    
    82   41  109 1    
    83   42   43 2    
    84   42   44 am   BACKBONE|DICT|INTERRES
    85   44   45 1    
    86   44  110 1    
    87   45   46 1    
    88   45   47 1    
    89   45  111 1    
    90   46  112 1    
    91   46  113 1    
    92   46  114 1    
    93   47   48 2    
    94   47   49 am   BACKBONE|DICT|INTERRES
    95   49   50 1    
    96   49  115 1    
    97   50   51 1    
    98   50   52 1    
    99   50  116 1    
   100   51  117 1    
   101   51  118 1    
   102   51  119 1    
   103   52   53 2    
   104   52   54 am   BACKBONE|DICT|INTERRES
   105   54   55 1    
   106   54  120 1    
   107   55   56 1    
   108   55   57 1    
   109   55  121 1    
   110   56  122 1    
   111   56  123 1    
   112   56  124 1    
   113   57   58 2    
   114   57   59 am   BACKBONE|DICT|INTERRES
   115   59   60 1    
   116   59  125 1    
   117   60   61 1    
   118   60   62 1    
   119   60  126 1    
   120   61  127 1    
   121   61  128 1    
   122   61  129 1    
   123   62   63 2    
   124   62   64 am   BACKBONE|DICT|INTERRES
   125   64   65 1    
   126   64  130 1    
   127   65   66 1    
   128   65   69 1    
   129   65  131 1    
   130   66   67 am   BACKBONE|DICT|INTERRES
   131   66   68 2    
   132   67  132 1    
   133   67  133 1    
   134   69   70 1    
   135   69  134 1    
   136   69  135 1    
   137   70   71 1    
   138   71  136 1    
   139   71  137 1    
@<TRIPOS>SUBSTRUCTURE
     1 UNK         1 GROUP             0       ****    0 ROOT    
