@<TRIPOS>MOLECULE
3R136
137   139    1
SMALL
USER_CHARGES


@<TRIPOS>ATOM
      1 CA         30.6865   27.0327   -0.4658 C.3       0 UNK        -0.1979 
      2 C          29.7810   25.8938   -0.0258 C.2       0 UNK         0.4864 
      3 O          28.5662   26.0796    0.0576 O.2       0 UNK        -0.5359 
      4 N          30.3641   24.7198    0.2523 N.am      1 UNK        -0.4318 
      5 CA         29.6762   23.5136    0.7278 C.3       1 UNK         0.0824 
      6 C6         30.6939   22.4077    1.1156 C.3       12 UNK        -0.0944 
      7 S7         30.0522   21.2732    2.3889 S.3       12 UNK        -0.2672 
      8 C8         30.8499   21.9316    3.8884 C.3       12 UNK         0.0333 
      9 C9         30.2870   23.2933    4.2668 C.ar      12 UNK        -0.0807 
     10 C10        30.9886   24.4655    3.9663 C.ar      12 UNK        -0.0894 
     11 C11        30.4603   25.7148    4.3074 C.ar      12 UNK        -0.0804 
     12 C12        29.2275   25.7850    4.9631 C.ar      12 UNK        -0.0824 
     13 C13        28.5123   24.6197    5.2550 C.ar      12 UNK        -0.0762 
     14 C14        29.0500   23.3775    4.9100 C.ar      12 UNK        -0.0782 
     15 C15        27.1518   24.6917    5.9293 C.3       12 UNK         0.0230 
     16 S16        25.8085   24.7033    4.6997 S.3       12 UNK        -0.2608 
     17 C17        25.8513   26.4353    4.1273 C.3       12 UNK        -0.0989 
     18 CA         26.5637   26.6201    2.7561 C.3       5 UNK         0.0716 
     19 N          25.9835   25.8292    1.6663 N.am      5 UNK        -0.4135 
     20 C          24.7317   25.9031    1.1973 C.2       4 UNK         0.5031 
     21 O          23.8807   26.6984    1.6014 O.2       4 UNK        -0.5229 
     22 CA         24.3834   24.8870    0.0962 C.3       4 UNK         0.0329 
     23 CB         22.9147   24.9686   -0.3748 C.3       4 UNK        -0.2001 
     24 N          25.3132   24.9523   -1.0357 N.am      4 UNK        -0.4303 
     25 C          25.4831   25.9613   -1.9058 C.2       3 UNK         0.5044 
     26 O          24.8584   27.0213   -1.8554 O.2       3 UNK        -0.5152 
     27 CA         26.5118   25.7529   -3.0389 C.3       3 UNK         0.0319 
     28 CB         27.3565   27.0117   -3.2958 C.3       3 UNK        -0.2001 
     29 N          27.4193   24.6345   -2.7812 N.am      3 UNK        -0.4354 
     30 C          27.2072   23.3579   -3.1267 C.2       2 UNK         0.4964 
     31 O          26.2286   22.9760   -3.7680 O.2       2 UNK        -0.5047 
     32 CA         28.2484   22.3261   -2.6545 C.3       2 UNK         0.0288 
     33 CB         29.1672   21.9190   -3.8182 C.3       2 UNK        -0.2113 
     34 N          29.0743   22.7850   -1.5311 N.am      2 UNK        -0.4145 
     35 C          28.6291   23.0042   -0.2838 C.2       1 UNK         0.5006 
     36 O          27.4507   22.8780    0.0563 O.2       1 UNK        -0.5103 
     37 C          26.7101   28.1055    2.3681 C.2       5 UNK         0.5055 
     38 O          26.3090   28.9899    3.1292 O.2       5 UNK        -0.5220 
     39 N          27.3092   28.3655    1.1990 N.am      6 UNK        -0.4450 
     40 CA         27.6095   29.7093    0.6962 C.3       6 UNK         0.0367 
     41 CB         27.7060   29.6673   -0.8380 C.3       6 UNK        -0.1929 
     42 C          28.8804   30.2828    1.3541 C.2       6 UNK         0.5070 
     43 O          29.8722   30.5429    0.6707 O.2       6 UNK        -0.5237 
     44 N          28.8388   30.4396    2.6819 N.am      7 UNK        -0.4739 
     45 CA         29.9063   31.0259    3.4921 C.3       7 UNK         0.0276 
     46 CB         29.6212   30.7368    4.9746 C.3       7 UNK        -0.1927 
     47 C          30.0286   32.5406    3.2499 C.2       7 UNK         0.5013 
     48 O          29.0134   33.2155    3.0581 O.2       7 UNK        -0.5193 
     49 N          31.2640   33.0447    3.3021 N.am      8 UNK        -0.4253 
     50 CA         31.6246   34.4567    3.1621 C.3       8 UNK         0.0242 
     51 CB         31.4324   34.9597    1.7160 C.3       8 UNK        -0.2000 
     52 C          33.0725   34.5971    3.6320 C.2       8 UNK         0.4948 
     53 O          33.3370   35.2795    4.6224 O.2       8 UNK        -0.5275 
     54 N          33.9630   33.8509    2.9656 N.am      9 UNK        -0.4246 
     55 CA         35.2439   33.4148    3.5184 C.3       9 UNK         0.0261 
     56 CB         36.1773   33.0248    2.3594 C.3       9 UNK        -0.1959 
     57 C          35.0092   32.2171    4.4585 C.2       9 UNK         0.5033 
     58 O          33.9293   31.6147    4.4243 O.2       9 UNK        -0.5390 
     59 N          36.0226   31.8872    5.2693 N.am      10 UNK        -0.4215 
     60 CA         36.0116   30.7434    6.1847 C.3       10 UNK         0.0240 
     61 CB         37.2696   30.7808    7.0682 C.3       10 UNK        -0.1982 
     62 C          35.9187   29.4085    5.4250 C.2       10 UNK         0.4970 
     63 O          36.6876   29.1893    4.4857 O.2       10 UNK        -0.4916 
     64 N          34.9785   28.5576    5.8461 N.am      11 UNK        -0.4279 
     65 CA         34.7072   27.2394    5.2578 C.3       11 UNK         0.1003 
     66 C          35.8613   26.2282    5.4971 C.2       11 UNK         0.5709 
     67 N          36.1050   25.3295    4.5528 N.am      11 UNK        -0.7358 
     68 O          36.5076   26.2254    6.5438 O.2       11 UNK        -0.4999 
     69 C69        33.3589   26.6658    5.7644 C.3       12 UNK        -0.0954 
     70 S70        31.9512   27.7748    5.4136 S.3       12 UNK        -0.2268 
     71 C71        31.2052   26.9929    3.9504 C.3       12 UNK         0.0203 
     72 H72        30.5898   27.8728    0.2209 H         1 UNK         0.0888 
     73 H73        31.7347   26.7359   -0.4896 H         1 UNK         0.0888 
     74 H74        30.4079   27.3718   -1.4628 H         1 UNK         0.0888 
     75 H75        31.3657   24.6394    0.1513 H         1 UNK         0.3017 
     76 H76        29.1318   23.8143    1.6261 H         1 UNK         0.0873 
     77 H77        31.6124   22.8545    1.4985 H         1 UNK         0.0745 
     78 H78        31.0066   21.8211    0.2497 H         1 UNK         0.0745 
     79 H79        31.9300   21.9824    3.7415 H         1 UNK         0.0705 
     80 H80        30.6887   21.2313    4.7093 H         1 UNK         0.0705 
     81 H81        31.9417   24.4057    3.4595 H         1 UNK         0.1334 
     82 H82        28.8193   26.7502    5.2298 H         1 UNK         0.1417 
     83 H83        28.4973   22.4734    5.1279 H         1 UNK         0.1562 
     84 H84        27.0832   25.5682    6.5753 H         1 UNK         0.0748 
     85 H85        27.0201   23.8274    6.5821 H         1 UNK         0.0748 
     86 H86        26.3331   27.0452    4.8932 H         1 UNK         0.0940 
     87 H87        24.8235   26.7982    4.0760 H         1 UNK         0.0940 
     88 H88        27.5830   26.2492    2.8595 H         1 UNK         0.0703 
     89 H89        26.6215   25.1878    1.2135 H         1 UNK         0.3081 
     90 H90        24.5228   23.9005    0.5418 H         1 UNK         0.0719 
     91 H91        22.6980   24.2143   -1.1311 H         1 UNK         0.0809 
     92 H92        22.2310   24.7984    0.4578 H         1 UNK         0.0809 
     93 H93        22.6729   25.9452   -0.7950 H         1 UNK         0.0809 
     94 H94        25.9172   24.1468   -1.1379 H         1 UNK         0.2990 
     95 H95        25.9376   25.5494   -3.9451 H         1 UNK         0.0690 
     96 H96        26.7298   27.8810   -3.4988 H         1 UNK         0.0788 
     97 H97        28.0095   26.8791   -4.1585 H         1 UNK         0.0788 
     98 H98        27.9832   27.2464   -2.4374 H         1 UNK         0.0788 
     99 H99        28.2296   24.8458   -2.2168 H         1 UNK         0.2993 
    100 H100       27.6975   21.4421   -2.3254 H         1 UNK         0.0949 
    101 H101       29.7577   22.7614   -4.1809 H         1 UNK         0.0767 
    102 H102       29.8557   21.1269   -3.5226 H         1 UNK         0.0767 
    103 H103       28.5863   21.5415   -4.6612 H         1 UNK         0.0767 
    104 H104       30.0532   22.9398   -1.7253 H         1 UNK         0.3013 
    105 H105       27.6662   27.5788    0.6584 H         1 UNK         0.3121 
    106 H106       26.7824   30.3752    0.9520 H         1 UNK         0.0774 
    107 H107       28.5527   29.0679   -1.1699 H         1 UNK         0.0815 
    108 H108       27.8400   30.6698   -1.2460 H         1 UNK         0.0815 
    109 H109       26.7994   29.2548   -1.2812 H         1 UNK         0.0815 
    110 H110       27.9737   30.2011    3.1552 H         1 UNK         0.2987 
    111 H111       30.8472   30.5432    3.2164 H         1 UNK         0.0949 
    112 H112       28.7059   31.2248    5.3123 H         1 UNK         0.0806 
    113 H113       29.5174   29.6676    5.1593 H         1 UNK         0.0806 
    114 H114       30.4362   31.0954    5.6049 H         1 UNK         0.0806 
    115 H115       32.0323   32.4288    3.5523 H         1 UNK         0.3010 
    116 H116       30.9938   35.0474    3.8299 H         1 UNK         0.0829 
    117 H117       30.3791   34.9684    1.4356 H         1 UNK         0.0813 
    118 H118       31.8003   35.9808    1.6068 H         1 UNK         0.0813 
    119 H119       31.9612   34.3402    0.9912 H         1 UNK         0.0813 
    120 H120       33.6306   33.3238    2.1711 H         1 UNK         0.3038 
    121 H121       35.6958   34.2309    4.0866 H         1 UNK         0.0769 
    122 H122       35.7830   32.1835    1.7876 H         1 UNK         0.0811 
    123 H123       37.1624   32.7342    2.7264 H         1 UNK         0.0811 
    124 H124       36.3239   33.8580    1.6717 H         1 UNK         0.0811 
    125 H125       36.8835   32.4119    5.2118 H         1 UNK         0.3204 
    126 H126       35.1367   30.8463    6.8307 H         1 UNK         0.0748 
    127 H127       38.1824   30.7105    6.4748 H         1 UNK         0.0771 
    128 H128       37.3181   31.6993    7.6535 H         1 UNK         0.0771 
    129 H129       37.2753   29.9480    7.7730 H         1 UNK         0.0771 
    130 H130       34.3922   28.8160    6.6252 H         1 UNK         0.2980 
    131 H131       34.6201   27.3872    4.1793 H         1 UNK         0.0545 
    132 H132       35.5777   25.3168    3.6940 H         1 UNK         0.3459 
    133 H133       36.8408   24.6559    4.6979 H         1 UNK         0.3459 
    134 H134       33.1674   25.6881    5.3209 H         1 UNK         0.0616 
    135 H135       33.3959   26.5030    6.8430 H         1 UNK         0.0616 
    136 H136       31.9792   26.8024    3.2053 H         1 UNK         0.0634 
    137 H137       30.5088   27.6976    3.4929 H         1 UNK         0.0634 
@<TRIPOS>BOND
     1    1    2 1    
     2    1   72 1    
     3    1   73 1    
     4    1   74 1    
     5    2    3 2    
     6    2    4 am   BACKBONE|DICT|INTERRES
     7    4    5 1    
     8    4   75 1    
     9    5    6 1    
    10    5   35 1    
    11    5   76 1    
    12    6    7 1    
    13    6   77 1    
    14    6   78 1    
    15    7    8 1    
    16    8    9 1    
    17    8   79 1    
    18    8   80 1    
    19    9   10 ar   
    20    9   14 ar   
    21   10   11 ar   
    22   10   81 1    
    23   11   12 ar   
    24   11   71 1    
    25   12   13 ar   
    26   12   82 1    
    27   13   14 ar   
    28   13   15 1    
    29   14   83 1    
    30   15   16 1    
    31   15   84 1    
    32   15   85 1    
    33   16   17 1    
    34   17   18 1    
    35   17   86 1    
    36   17   87 1    
    37   18   19 1    
    38   18   37 1    
    39   18   88 1    
    40   19   20 am   BACKBONE|DICT|INTERRES
    41   19   89 1    
    42   20   21 2    
    43   20   22 1    
    44   22   23 1    
    45   22   24 1    
    46   22   90 1    
    47   23   91 1    
    48   23   92 1    
    49   23   93 1    
    50   24   25 am   BACKBONE|DICT|INTERRES
    51   24   94 1    
    52   25   26 2    
    53   25   27 1    
    54   27   28 1    
    55   27   29 1    
    56   27   95 1    
    57   28   96 1    
    58   28   97 1    
    59   28   98 1    
    60   29   30 am   BACKBONE|DICT|INTERRES
    61   29   99 1    
    62   30   31 2    
    63   30   32 1    
    64   32   33 1    
    65   32   34 1    
    66   32  100 1    
    67   33  101 1    
    68   33  102 1    
    69   33  103 1    
    70   34   35 am   BACKBONE|DICT|INTERRES
    71   34  104 1    
    72   35   36 2    
    73   37   38 2    
    74   37   39 am   BACKBONE|DICT|INTERRES
    75   39   40 1    
    76   39  105 1    
    77   40   41 1    
    78   40   42 1    
    79   40  106 1    
    80   41  107 1    
    81   41  108 1    
    82   41  109 1    
    83   42   43 2    
    84   42   44 am   BACKBONE|DICT|INTERRES
    85   44   45 1    
    86   44  110 1    
    87   45   46 1    
    88   45   47 1    
    89   45  111 1    
    90   46  112 1    
    91   46  113 1    
    92   46  114 1    
    93   47   48 2    
    94   47   49 am   BACKBONE|DICT|INTERRES
    95   49   50 1    
    96   49  115 1    
    97   50   51 1    
    98   50   52 1    
    99   50  116 1    
   100   51  117 1    
   101   51  118 1    
   102   51  119 1    
   103   52   53 2    
   104   52   54 am   BACKBONE|DICT|INTERRES
   105   54   55 1    
   106   54  120 1    
   107   55   56 1    
   108   55   57 1    
   109   55  121 1    
   110   56  122 1    
   111   56  123 1    
   112   56  124 1    
   113   57   58 2    
   114   57   59 am   BACKBONE|DICT|INTERRES
   115   59   60 1    
   116   59  125 1    
   117   60   61 1    
   118   60   62 1    
   119   60  126 1    
   120   61  127 1    
   121   61  128 1    
   122   61  129 1    
   123   62   63 2    
   124   62   64 am   BACKBONE|DICT|INTERRES
   125   64   65 1    
   126   64  130 1    
   127   65   66 1    
   128   65   69 1    
   129   65  131 1    
   130   66   67 am   BACKBONE|DICT|INTERRES
   131   66   68 2    
   132   67  132 1    
   133   67  133 1    
   134   69   70 1    
   135   69  134 1    
   136   69  135 1    
   137   70   71 1    
   138   71  136 1    
   139   71  137 1    
@<TRIPOS>SUBSTRUCTURE
     1 UNK         1 GROUP             0       ****    0 ROOT    
