@<TRIPOS>MOLECULE
3R136
137   139    1
SMALL
USER_CHARGES


@<TRIPOS>ATOM
      1 CA         27.4981   17.7971    0.0071 C.3       0 UNK        -0.1979 
      2 C          27.4521   19.2535   -0.4316 C.2       0 UNK         0.4864 
      3 O          26.6125   19.6172   -1.2572 O.2       0 UNK        -0.5359 
      4 N          28.3528   20.0852    0.1067 N.am      1 UNK        -0.4318 
      5 CA         28.4281   21.5254   -0.1606 C.3       1 UNK         0.0824 
      6 C6         29.7632   22.1345    0.3309 C.3       12 UNK        -0.0944 
      7 S7         31.2137   21.4302   -0.5194 S.3       12 UNK        -0.2672 
      8 C8         32.4161   21.3271    0.8463 C.3       12 UNK         0.0333 
      9 C9         32.6959   22.6897    1.4682 C.ar      12 UNK        -0.0807 
     10 C10        32.3148   22.9577    2.7872 C.ar      12 UNK        -0.0894 
     11 C11        32.5610   24.2060    3.3691 C.ar      12 UNK        -0.0804 
     12 C12        33.2057   25.1887    2.6060 C.ar      12 UNK        -0.0824 
     13 C13        33.5845   24.9383    1.2840 C.ar      12 UNK        -0.0762 
     14 C14        33.3341   23.6842    0.7227 C.ar      12 UNK        -0.0782 
     15 C15        34.2677   26.0204    0.4606 C.3       12 UNK         0.0230 
     16 S16        33.0757   26.9534   -0.5537 S.3       12 UNK        -0.2608 
     17 C17        32.1756   27.9134    0.7105 C.3       12 UNK        -0.0989 
     18 CA         30.6825   27.4999    0.8279 C.3       5 UNK         0.0716 
     19 N          30.1630   27.6102    2.1949 N.am      5 UNK        -0.4135 
     20 C          30.0279   28.7312    2.9206 C.2       4 UNK         0.5031 
     21 O          30.4128   29.8459    2.5551 O.2       4 UNK        -0.5229 
     22 CA         29.3232   28.5770    4.2854 C.3       4 UNK         0.0329 
     23 CB         28.7718   29.9114    4.8250 C.3       4 UNK        -0.2001 
     24 N          28.2819   27.5420    4.3081 N.am      4 UNK        -0.4303 
     25 C          27.1858   27.4784    3.5403 C.2       3 UNK         0.5044 
     26 O          26.8821   28.3112    2.6842 O.2       3 UNK        -0.5152 
     27 CA         26.2758   26.2618    3.7770 C.3       3 UNK         0.0319 
     28 CB         25.0440   26.6759    4.5977 C.3       3 UNK        -0.2001 
     29 N          25.8310   25.5920    2.5495 N.am      3 UNK        -0.4354 
     30 C          26.6078   25.1886    1.5344 C.2       2 UNK         0.4964 
     31 O          27.8112   25.4476    1.4269 O.2       2 UNK        -0.5047 
     32 CA         25.9113   24.3572    0.4427 C.3       2 UNK         0.0288 
     33 CB         25.3623   25.2561   -0.6752 C.3       2 UNK        -0.2113 
     34 N          26.8404   23.3861   -0.1356 N.am      2 UNK        -0.4145 
     35 C          27.2522   22.2773    0.4928 C.2       1 UNK         0.5006 
     36 O          26.7828   21.8797    1.5638 O.2       1 UNK        -0.5103 
     37 C          29.7515   28.2238   -0.1703 C.2       5 UNK         0.5055 
     38 O          30.1997   29.0798   -0.9339 O.2       5 UNK        -0.5220 
     39 N          28.4555   27.8814   -0.1125 N.am      6 UNK        -0.4450 
     40 CA         27.3502   28.4804   -0.8716 C.3       6 UNK         0.0367 
     41 CB         27.4861   28.1764   -2.3799 C.3       6 UNK        -0.1929 
     42 C          27.1764   29.9820   -0.5710 C.2       6 UNK         0.5070 
     43 O          27.1366   30.8003   -1.4916 O.2       6 UNK        -0.5237 
     44 N          27.0720   30.3037    0.7264 N.am      7 UNK        -0.4739 
     45 CA         26.8667   31.6388    1.3018 C.3       7 UNK         0.0276 
     46 CB         25.4794   32.1945    0.9141 C.3       7 UNK        -0.1927 
     47 C          28.0116   32.6318    1.0141 C.2       7 UNK         0.5013 
     48 O          27.7677   33.8366    0.9277 O.2       7 UNK        -0.5193 
     49 N          29.2465   32.1226    0.9039 N.am      8 UNK        -0.4253 
     50 CA         30.4605   32.9230    0.7104 C.3       8 UNK         0.0242 
     51 CB         31.5105   32.0682   -0.0166 C.3       8 UNK        -0.2000 
     52 C          31.0397   33.4702    2.0287 C.2       8 UNK         0.4948 
     53 O          31.9964   34.2441    1.9791 O.2       8 UNK        -0.5275 
     54 N          30.4765   33.0444    3.1711 N.am      9 UNK        -0.4246 
     55 CA         30.9167   33.3210    4.5457 C.3       9 UNK         0.0261 
     56 CB         30.8802   34.8319    4.8635 C.3       9 UNK        -0.1959 
     57 C          32.2707   32.6624    4.8822 C.2       9 UNK         0.5033 
     58 O          33.0075   33.1726    5.7290 O.2       9 UNK        -0.5390 
     59 N          32.5662   31.5345    4.2238 N.am      10 UNK        -0.4215 
     60 CA         33.7407   30.6985    4.4675 C.3       10 UNK         0.0240 
     61 CB         34.2433   30.1763    3.1117 C.3       10 UNK        -0.1982 
     62 C          33.3870   29.5430    5.4200 C.2       10 UNK         0.4970 
     63 O          32.2192   29.3794    5.7733 O.2       10 UNK        -0.4916 
     64 N          34.4120   28.7767    5.8175 N.am      11 UNK        -0.4279 
     65 CA         34.3693   27.5711    6.6717 C.3       11 UNK         0.1003 
     66 C          33.7241   27.7140    8.0864 C.2       11 UNK         0.5709 
     67 N          33.4807   28.9190    8.5865 N.am      11 UNK        -0.7358 
     68 O          33.4910   26.7189    8.7692 O.2       11 UNK        -0.4999 
     69 C69        33.9586   26.2783    5.9013 C.3       12 UNK        -0.0954 
     70 S70        32.1961   26.1472    5.4361 S.3       12 UNK        -0.2268 
     71 C71        32.1078   24.4306    4.8154 C.3       12 UNK         0.0203 
     72 H72        26.5532   17.5153    0.4710 H         1 UNK         0.0888 
     73 H73        27.6618   17.1505   -0.8546 H         1 UNK         0.0888 
     74 H74        28.2967   17.6127    0.7255 H         1 UNK         0.0888 
     75 H75        29.0110   19.7342    0.7867 H         1 UNK         0.3017 
     76 H76        28.3613   21.6666   -1.2419 H         1 UNK         0.0873 
     77 H77        29.8650   21.9923    1.4086 H         1 UNK         0.0745 
     78 H78        29.7848   23.2143    0.1663 H         1 UNK         0.0745 
     79 H79        33.3487   20.9084    0.4658 H         1 UNK         0.0705 
     80 H80        32.0472   20.6237    1.5944 H         1 UNK         0.0705 
     81 H81        31.8185   22.1902    3.3658 H         1 UNK         0.1334 
     82 H82        33.4131   26.1591    3.0285 H         1 UNK         0.1417 
     83 H83        33.6224   23.4849   -0.3007 H         1 UNK         0.1562 
     84 H84        35.0084   25.5658   -0.1991 H         1 UNK         0.0748 
     85 H85        34.8197   26.7067    1.1049 H         1 UNK         0.0748 
     86 H86        32.2914   28.9769    0.5019 H         1 UNK         0.0940 
     87 H87        32.6699   27.7624    1.6665 H         1 UNK         0.0940 
     88 H88        30.6087   26.4362    0.5934 H         1 UNK         0.0703 
     89 H89        29.7836   26.7558    2.5787 H         1 UNK         0.3081 
     90 H90        30.0871   28.2339    4.9813 H         1 UNK         0.0719 
     91 H91        28.2723   29.7758    5.7841 H         1 UNK         0.0809 
     92 H92        28.0607   30.3661    4.1362 H         1 UNK         0.0809 
     93 H93        29.5826   30.6198    4.9857 H         1 UNK         0.0809 
     94 H94        28.4323   26.8000    4.9780 H         1 UNK         0.2990 
     95 H95        26.8337   25.5192    4.3511 H         1 UNK         0.0690 
     96 H96        24.4300   25.8141    4.8600 H         1 UNK         0.0788 
     97 H97        24.4175   27.3826    4.0514 H         1 UNK         0.0788 
     98 H98        25.3383   27.1572    5.5316 H         1 UNK         0.0788 
     99 H99        24.8482   25.3636    2.5118 H         1 UNK         0.2993 
    100 H100       25.0774   23.8147    0.8944 H         1 UNK         0.0949 
    101 H101       26.1645   25.7411   -1.2295 H         1 UNK         0.0767 
    102 H102       24.7701   24.6803   -1.3869 H         1 UNK         0.0767 
    103 H103       24.7152   26.0376   -0.2744 H         1 UNK         0.0767 
    104 H104       27.3037   23.6631   -0.9886 H         1 UNK         0.3013 
    105 H105       28.1901   27.1635    0.5571 H         1 UNK         0.3121 
    106 H106       26.4388   27.9997   -0.5154 H         1 UNK         0.0774 
    107 H107       26.5948   28.4953   -2.9213 H         1 UNK         0.0815 
    108 H108       28.3361   28.6958   -2.8235 H         1 UNK         0.0815 
    109 H109       27.6157   27.1107   -2.5651 H         1 UNK         0.0815 
    110 H110       27.0936   29.5415    1.4060 H         1 UNK         0.2987 
    111 H111       26.8635   31.4979    2.3831 H         1 UNK         0.0949 
    112 H112       25.4188   32.4270   -0.1495 H         1 UNK         0.0806 
    113 H113       24.6876   31.4830    1.1484 H         1 UNK         0.0806 
    114 H114       25.2579   33.1126    1.4596 H         1 UNK         0.0806 
    115 H115       29.3786   31.1236    1.0130 H         1 UNK         0.3010 
    116 H116       30.2249   33.7806    0.0765 H         1 UNK         0.0829 
    117 H117       31.1257   31.6823   -0.9607 H         1 UNK         0.0813 
    118 H118       32.4035   32.6515   -0.2448 H         1 UNK         0.0813 
    119 H119       31.8227   31.2204    0.5922 H         1 UNK         0.0813 
    120 H120       29.7216   32.3796    3.0786 H         1 UNK         0.3038 
    121 H121       30.1849   32.8455    5.1989 H         1 UNK         0.0769 
    122 H122       31.6563   35.3802    4.3291 H         1 UNK         0.0811 
    123 H123       29.9173   35.2702    4.6017 H         1 UNK         0.0811 
    124 H124       31.0371   35.0095    5.9281 H         1 UNK         0.0811 
    125 H125       31.8669   31.1431    3.6027 H         1 UNK         0.3204 
    126 H126       34.5345   31.2886    4.9303 H         1 UNK         0.0748 
    127 H127       35.1072   29.5198    3.2209 H         1 UNK         0.0771 
    128 H128       33.4660   29.6185    2.5953 H         1 UNK         0.0771 
    129 H129       34.5441   30.9987    2.4620 H         1 UNK         0.0771 
    130 H130       35.3360   29.0284    5.4983 H         1 UNK         0.2980 
    131 H131       35.4207   27.4216    6.9194 H         1 UNK         0.0545 
    132 H132       33.6488   29.7433    8.0331 H         1 UNK         0.3459 
    133 H133       33.0809   28.9994    9.5078 H         1 UNK         0.3459 
    134 H134       34.5649   26.1898    4.9999 H         1 UNK         0.0616 
    135 H135       34.2113   25.4027    6.5017 H         1 UNK         0.0616 
    136 H136       31.0684   24.1107    4.9017 H         1 UNK         0.0634 
    137 H137       32.6828   23.7806    5.4762 H         1 UNK         0.0634 
@<TRIPOS>BOND
     1    1    2 1    
     2    1   72 1    
     3    1   73 1    
     4    1   74 1    
     5    2    3 2    
     6    2    4 am   BACKBONE|DICT|INTERRES
     7    4    5 1    
     8    4   75 1    
     9    5    6 1    
    10    5   35 1    
    11    5   76 1    
    12    6    7 1    
    13    6   77 1    
    14    6   78 1    
    15    7    8 1    
    16    8    9 1    
    17    8   79 1    
    18    8   80 1    
    19    9   10 ar   
    20    9   14 ar   
    21   10   11 ar   
    22   10   81 1    
    23   11   12 ar   
    24   11   71 1    
    25   12   13 ar   
    26   12   82 1    
    27   13   14 ar   
    28   13   15 1    
    29   14   83 1    
    30   15   16 1    
    31   15   84 1    
    32   15   85 1    
    33   16   17 1    
    34   17   18 1    
    35   17   86 1    
    36   17   87 1    
    37   18   19 1    
    38   18   37 1    
    39   18   88 1    
    40   19   20 am   BACKBONE|DICT|INTERRES
    41   19   89 1    
    42   20   21 2    
    43   20   22 1    
    44   22   23 1    
    45   22   24 1    
    46   22   90 1    
    47   23   91 1    
    48   23   92 1    
    49   23   93 1    
    50   24   25 am   BACKBONE|DICT|INTERRES
    51   24   94 1    
    52   25   26 2    
    53   25   27 1    
    54   27   28 1    
    55   27   29 1    
    56   27   95 1    
    57   28   96 1    
    58   28   97 1    
    59   28   98 1    
    60   29   30 am   BACKBONE|DICT|INTERRES
    61   29   99 1    
    62   30   31 2    
    63   30   32 1    
    64   32   33 1    
    65   32   34 1    
    66   32  100 1    
    67   33  101 1    
    68   33  102 1    
    69   33  103 1    
    70   34   35 am   BACKBONE|DICT|INTERRES
    71   34  104 1    
    72   35   36 2    
    73   37   38 2    
    74   37   39 am   BACKBONE|DICT|INTERRES
    75   39   40 1    
    76   39  105 1    
    77   40   41 1    
    78   40   42 1    
    79   40  106 1    
    80   41  107 1    
    81   41  108 1    
    82   41  109 1    
    83   42   43 2    
    84   42   44 am   BACKBONE|DICT|INTERRES
    85   44   45 1    
    86   44  110 1    
    87   45   46 1    
    88   45   47 1    
    89   45  111 1    
    90   46  112 1    
    91   46  113 1    
    92   46  114 1    
    93   47   48 2    
    94   47   49 am   BACKBONE|DICT|INTERRES
    95   49   50 1    
    96   49  115 1    
    97   50   51 1    
    98   50   52 1    
    99   50  116 1    
   100   51  117 1    
   101   51  118 1    
   102   51  119 1    
   103   52   53 2    
   104   52   54 am   BACKBONE|DICT|INTERRES
   105   54   55 1    
   106   54  120 1    
   107   55   56 1    
   108   55   57 1    
   109   55  121 1    
   110   56  122 1    
   111   56  123 1    
   112   56  124 1    
   113   57   58 2    
   114   57   59 am   BACKBONE|DICT|INTERRES
   115   59   60 1    
   116   59  125 1    
   117   60   61 1    
   118   60   62 1    
   119   60  126 1    
   120   61  127 1    
   121   61  128 1    
   122   61  129 1    
   123   62   63 2    
   124   62   64 am   BACKBONE|DICT|INTERRES
   125   64   65 1    
   126   64  130 1    
   127   65   66 1    
   128   65   69 1    
   129   65  131 1    
   130   66   67 am   BACKBONE|DICT|INTERRES
   131   66   68 2    
   132   67  132 1    
   133   67  133 1    
   134   69   70 1    
   135   69  134 1    
   136   69  135 1    
   137   70   71 1    
   138   71  136 1    
   139   71  137 1    
@<TRIPOS>SUBSTRUCTURE
     1 UNK         1 GROUP             0       ****    0 ROOT    
