@<TRIPOS>MOLECULE
3R136
137   139    1
SMALL
USER_CHARGES


@<TRIPOS>ATOM
      1 CA         29.5196   29.7761   -4.5721 C.3       0 UNK        -0.1979 
      2 C          29.3031   29.3291   -3.1339 C.2       0 UNK         0.4864 
      3 O          29.2170   30.1727   -2.2420 O.2       0 UNK        -0.5359 
      4 N          29.2173   28.0137   -2.9083 N.am      1 UNK        -0.4318 
      5 CA         28.9897   27.3948   -1.6051 C.3       1 UNK         0.0824 
      6 C6         30.2862   27.3246   -0.7473 C.3       12 UNK        -0.0944 
      7 S7         29.9328   26.9638    1.0029 S.3       12 UNK        -0.2672 
      8 C8         31.0214   25.5518    1.3412 C.3       12 UNK         0.0333 
      9 C9         30.7713   25.0507    2.7516 C.ar      12 UNK        -0.0807 
     10 C10        31.4537   25.6150    3.8316 C.ar      12 UNK        -0.0894 
     11 C11        31.1827   25.1959    5.1375 C.ar      12 UNK        -0.0804 
     12 C12        30.1989   24.2266    5.3603 C.ar      12 UNK        -0.0824 
     13 C13        29.5014   23.6636    4.2850 C.ar      12 UNK        -0.0762 
     14 C14        29.8185   24.0559    2.9816 C.ar      12 UNK        -0.0782 
     15 C15        28.3857   22.6526    4.5313 C.3       12 UNK         0.0230 
     16 S16        26.7794   23.1770    3.8290 S.3       12 UNK        -0.2608 
     17 C17        26.5830   24.8510    4.5264 C.3       12 UNK        -0.0989 
     18 CA         26.8655   25.9493    3.4675 C.3       5 UNK         0.0716 
     19 N          25.7990   26.0248    2.4646 N.am      5 UNK        -0.4135 
     20 C          25.7782   26.8290    1.3932 C.2       4 UNK         0.5031 
     21 O          26.6409   27.6672    1.1344 O.2       4 UNK        -0.5229 
     22 CA         24.6205   26.6031    0.4084 C.3       4 UNK         0.0329 
     23 CB         24.4696   27.7522   -0.6066 C.3       4 UNK        -0.2001 
     24 N          24.8463   25.3513   -0.3137 N.am      4 UNK        -0.4303 
     25 C          24.4682   24.1424    0.1259 C.2       3 UNK         0.5044 
     26 O          23.8177   23.9710    1.1581 O.2       3 UNK        -0.5152 
     27 CA         24.8896   22.9162   -0.7055 C.3       3 UNK         0.0319 
     28 CB         23.7639   22.5073   -1.6688 C.3       3 UNK        -0.2001 
     29 N          26.1247   23.1209   -1.4664 N.am      3 UNK        -0.4354 
     30 C          27.3430   23.2516   -0.9234 C.2       2 UNK         0.4964 
     31 O          27.5687   23.1614    0.2822 O.2       2 UNK        -0.5047 
     32 CA         28.5154   23.5534   -1.8746 C.3       2 UNK         0.0288 
     33 CB         28.2223   23.2500   -3.3629 C.3       2 UNK        -0.2113 
     34 N          28.9901   24.9317   -1.7059 N.am      2 UNK        -0.4145 
     35 C          28.2751   26.0566   -1.8627 C.2       1 UNK         0.5006 
     36 O          27.0977   26.0716   -2.2305 O.2       1 UNK        -0.5103 
     37 C          27.1701   27.2923    4.1585 C.2       5 UNK         0.5055 
     38 O          26.2628   28.0994    4.3766 O.2       5 UNK        -0.5220 
     39 N          28.4475   27.4530    4.5368 N.am      6 UNK        -0.4450 
     40 CA         29.0401   28.6117    5.2131 C.3       6 UNK         0.0367 
     41 CB         28.4490   28.7991    6.6262 C.3       6 UNK        -0.1929 
     42 C          28.9944   29.8909    4.3540 C.2       6 UNK         0.5070 
     43 O          28.6672   30.9663    4.8587 O.2       6 UNK        -0.5237 
     44 N          29.3452   29.7467    3.0722 N.am      7 UNK        -0.4739 
     45 CA         29.4836   30.8252    2.0958 C.3       7 UNK         0.0276 
     46 CB         28.3857   30.6646    1.0321 C.3       7 UNK        -0.1927 
     47 C          30.8857   30.7684    1.4687 C.2       7 UNK         0.5013 
     48 O          31.6512   29.8407    1.7511 O.2       7 UNK        -0.5193 
     49 N          31.2101   31.7754    0.6441 N.am      8 UNK        -0.4253 
     50 CA         32.5069   31.9865   -0.0127 C.3       8 UNK         0.0242 
     51 CB         32.7731   30.8943   -1.0758 C.3       8 UNK        -0.2000 
     52 C          33.6282   32.1425    1.0324 C.2       8 UNK         0.4948 
     53 O          33.6747   33.1739    1.7044 O.2       8 UNK        -0.5275 
     54 N          34.4795   31.1177    1.1813 N.am      9 UNK        -0.4246 
     55 CA         35.4977   31.0244    2.2328 C.3       9 UNK         0.0261 
     56 CB         36.4841   29.8985    1.8823 C.3       9 UNK        -0.1959 
     57 C          34.9063   30.7992    3.6386 C.2       9 UNK         0.5033 
     58 O          35.5803   31.1020    4.6249 O.2       9 UNK        -0.5390 
     59 N          33.6788   30.2574    3.7074 N.am      10 UNK        -0.4215 
     60 CA         32.8524   30.0389    4.9008 C.3       10 UNK         0.0240 
     61 CB         32.2823   31.3829    5.3984 C.3       10 UNK        -0.1982 
     62 C          33.5280   29.2271    6.0237 C.2       10 UNK         0.4970 
     63 O          33.2094   29.4316    7.1960 O.2       10 UNK        -0.4916 
     64 N          34.4406   28.3210    5.6446 N.am      11 UNK        -0.4279 
     65 CA         35.2888   27.5191    6.5447 C.3       11 UNK         0.1003 
     66 C          36.2826   28.3613    7.4062 C.2       11 UNK         0.5709 
     67 N          36.5908   29.6017    7.0408 N.am      11 UNK        -0.7358 
     68 O          36.8152   27.8763    8.4021 O.2       11 UNK        -0.4999 
     69 C69        34.4809   26.4736    7.3725 C.3       12 UNK        -0.0954 
     70 S70        33.6747   25.2314    6.3079 S.3       12 UNK        -0.2268 
     71 C71        31.9495   25.8080    6.2992 C.3       12 UNK         0.0203 
     72 H72        29.5872   28.9312   -5.2574 H         1 UNK         0.0888 
     73 H73        28.6946   30.4104   -4.8954 H         1 UNK         0.0888 
     74 H74        30.4424   30.3506   -4.6501 H         1 UNK         0.0888 
     75 H75        29.2501   27.3697   -3.6872 H         1 UNK         0.3017 
     76 H76        28.2633   28.0108   -1.0709 H         1 UNK         0.0873 
     77 H77        31.0139   26.6234   -1.1578 H         1 UNK         0.0745 
     78 H78        30.7831   28.2960   -0.7591 H         1 UNK         0.0745 
     79 H79        32.0629   25.8546    1.2218 H         1 UNK         0.0705 
     80 H80        30.8369   24.7546    0.6202 H         1 UNK         0.0705 
     81 H81        32.1959   26.3825    3.6565 H         1 UNK         0.1334 
     82 H82        29.9714   23.9167    6.3713 H         1 UNK         0.1417 
     83 H83        29.2758   23.6280    2.1494 H         1 UNK         0.1562 
     84 H84        28.2563   22.4715    5.5995 H         1 UNK         0.0748 
     85 H85        28.6686   21.6964    4.0894 H         1 UNK         0.0748 
     86 H86        27.2438   24.9432    5.3909 H         1 UNK         0.0940 
     87 H87        25.5709   24.9524    4.9227 H         1 UNK         0.0940 
     88 H88        27.7598   25.6830    2.9058 H         1 UNK         0.0703 
     89 H89        25.0641   25.3348    2.5484 H         1 UNK         0.3081 
     90 H90        23.6928   26.5438    0.9820 H         1 UNK         0.0719 
     91 H91        25.3615   27.8731   -1.2224 H         1 UNK         0.0809 
     92 H92        23.6239   27.5834   -1.2730 H         1 UNK         0.0809 
     93 H93        24.2974   28.7004   -0.0958 H         1 UNK         0.0809 
     94 H94        25.4485   25.4107   -1.1285 H         1 UNK         0.2990 
     95 H95        25.0578   22.0927   -0.0079 H         1 UNK         0.0690 
     96 H96        24.0131   21.5917   -2.2056 H         1 UNK         0.0788 
     97 H97        23.5596   23.2854   -2.4055 H         1 UNK         0.0788 
     98 H98        22.8358   22.3203   -1.1265 H         1 UNK         0.0788 
     99 H99        26.0340   23.2320   -2.4661 H         1 UNK         0.2993 
    100 H100       29.3320   22.9005   -1.5618 H         1 UNK         0.0949 
    101 H101       27.4508   23.8974   -3.7806 H         1 UNK         0.0767 
    102 H102       29.1192   23.3816   -3.9685 H         1 UNK         0.0767 
    103 H103       27.8983   22.2169   -3.4971 H         1 UNK         0.0767 
    104 H104       29.9412   25.0256   -1.3821 H         1 UNK         0.3013 
    105 H105       29.0990   26.7157    4.2996 H         1 UNK         0.3121 
    106 H106       30.0951   28.3717    5.3414 H         1 UNK         0.0774 
    107 H107       28.9883   29.5739    7.1727 H         1 UNK         0.0815 
    108 H108       27.4008   29.0972    6.5928 H         1 UNK         0.0815 
    109 H109       28.5202   27.8822    7.2112 H         1 UNK         0.0815 
    110 H110       29.6426   28.8387    2.7367 H         1 UNK         0.2987 
    111 H111       29.3764   31.7977    2.5810 H         1 UNK         0.0949 
    112 H112       28.4137   31.4706    0.2983 H         1 UNK         0.0806 
    113 H113       28.4951   29.7266    0.4886 H         1 UNK         0.0806 
    114 H114       27.3931   30.6691    1.4829 H         1 UNK         0.0806 
    115 H115       30.5256   32.5022    0.4888 H         1 UNK         0.3010 
    116 H116       32.4411   32.9421   -0.5353 H         1 UNK         0.0829 
    117 H117       31.9931   30.8997   -1.8375 H         1 UNK         0.0813 
    118 H118       33.7202   31.0669   -1.5886 H         1 UNK         0.0813 
    119 H119       32.8020   29.8903   -0.6520 H         1 UNK         0.0813 
    120 H120       34.3512   30.3055    0.5947 H         1 UNK         0.3038 
    121 H121       36.0484   31.9672    2.2587 H         1 UNK         0.0769 
    122 H122       37.2701   29.8201    2.6350 H         1 UNK         0.0811 
    123 H123       36.9731   30.0830    0.9255 H         1 UNK         0.0811 
    124 H124       35.9890   28.9282    1.8258 H         1 UNK         0.0811 
    125 H125       33.2027   30.0448    2.8322 H         1 UNK         0.3204 
    126 H126       32.0157   29.4298    4.5619 H         1 UNK         0.0748 
    127 H127       31.5542   31.2333    6.1967 H         1 UNK         0.0771 
    128 H128       33.0677   32.0327    5.7860 H         1 UNK         0.0771 
    129 H129       31.7711   31.9157    4.5962 H         1 UNK         0.0771 
    130 H130       34.6430   28.2312    4.6605 H         1 UNK         0.2980 
    131 H131       35.9457   26.9547    5.8821 H         1 UNK         0.0545 
    132 H132       36.1743   30.0271    6.2187 H         1 UNK         0.3459 
    133 H133       37.2430   30.1286    7.5990 H         1 UNK         0.3459 
    134 H134       33.7434   26.9566    8.0146 H         1 UNK         0.0616 
    135 H135       35.1424   25.9204    8.0411 H         1 UNK         0.0616 
    136 H136       31.9170   26.8929    6.2133 H         1 UNK         0.0634 
    137 H137       31.4838   25.5592    7.2539 H         1 UNK         0.0634 
@<TRIPOS>BOND
     1    1    2 1    
     2    1   72 1    
     3    1   73 1    
     4    1   74 1    
     5    2    3 2    
     6    2    4 am   BACKBONE|DICT|INTERRES
     7    4    5 1    
     8    4   75 1    
     9    5    6 1    
    10    5   35 1    
    11    5   76 1    
    12    6    7 1    
    13    6   77 1    
    14    6   78 1    
    15    7    8 1    
    16    8    9 1    
    17    8   79 1    
    18    8   80 1    
    19    9   10 ar   
    20    9   14 ar   
    21   10   11 ar   
    22   10   81 1    
    23   11   12 ar   
    24   11   71 1    
    25   12   13 ar   
    26   12   82 1    
    27   13   14 ar   
    28   13   15 1    
    29   14   83 1    
    30   15   16 1    
    31   15   84 1    
    32   15   85 1    
    33   16   17 1    
    34   17   18 1    
    35   17   86 1    
    36   17   87 1    
    37   18   19 1    
    38   18   37 1    
    39   18   88 1    
    40   19   20 am   BACKBONE|DICT|INTERRES
    41   19   89 1    
    42   20   21 2    
    43   20   22 1    
    44   22   23 1    
    45   22   24 1    
    46   22   90 1    
    47   23   91 1    
    48   23   92 1    
    49   23   93 1    
    50   24   25 am   BACKBONE|DICT|INTERRES
    51   24   94 1    
    52   25   26 2    
    53   25   27 1    
    54   27   28 1    
    55   27   29 1    
    56   27   95 1    
    57   28   96 1    
    58   28   97 1    
    59   28   98 1    
    60   29   30 am   BACKBONE|DICT|INTERRES
    61   29   99 1    
    62   30   31 2    
    63   30   32 1    
    64   32   33 1    
    65   32   34 1    
    66   32  100 1    
    67   33  101 1    
    68   33  102 1    
    69   33  103 1    
    70   34   35 am   BACKBONE|DICT|INTERRES
    71   34  104 1    
    72   35   36 2    
    73   37   38 2    
    74   37   39 am   BACKBONE|DICT|INTERRES
    75   39   40 1    
    76   39  105 1    
    77   40   41 1    
    78   40   42 1    
    79   40  106 1    
    80   41  107 1    
    81   41  108 1    
    82   41  109 1    
    83   42   43 2    
    84   42   44 am   BACKBONE|DICT|INTERRES
    85   44   45 1    
    86   44  110 1    
    87   45   46 1    
    88   45   47 1    
    89   45  111 1    
    90   46  112 1    
    91   46  113 1    
    92   46  114 1    
    93   47   48 2    
    94   47   49 am   BACKBONE|DICT|INTERRES
    95   49   50 1    
    96   49  115 1    
    97   50   51 1    
    98   50   52 1    
    99   50  116 1    
   100   51  117 1    
   101   51  118 1    
   102   51  119 1    
   103   52   53 2    
   104   52   54 am   BACKBONE|DICT|INTERRES
   105   54   55 1    
   106   54  120 1    
   107   55   56 1    
   108   55   57 1    
   109   55  121 1    
   110   56  122 1    
   111   56  123 1    
   112   56  124 1    
   113   57   58 2    
   114   57   59 am   BACKBONE|DICT|INTERRES
   115   59   60 1    
   116   59  125 1    
   117   60   61 1    
   118   60   62 1    
   119   60  126 1    
   120   61  127 1    
   121   61  128 1    
   122   61  129 1    
   123   62   63 2    
   124   62   64 am   BACKBONE|DICT|INTERRES
   125   64   65 1    
   126   64  130 1    
   127   65   66 1    
   128   65   69 1    
   129   65  131 1    
   130   66   67 am   BACKBONE|DICT|INTERRES
   131   66   68 2    
   132   67  132 1    
   133   67  133 1    
   134   69   70 1    
   135   69  134 1    
   136   69  135 1    
   137   70   71 1    
   138   71  136 1    
   139   71  137 1    
@<TRIPOS>SUBSTRUCTURE
     1 UNK         1 GROUP             0       ****    0 ROOT    
