@<TRIPOS>MOLECULE
3R136
137   139    1
SMALL
USER_CHARGES


@<TRIPOS>ATOM
      1 CA         28.1169   21.2739   -2.2042 C.3       0 UNK        -0.1979 
      2 C          27.8887   21.6220   -0.7410 C.2       0 UNK         0.4864 
      3 O          27.0626   20.9847   -0.0856 O.2       0 UNK        -0.5359 
      4 N          28.6039   22.6379   -0.2351 N.am      1 UNK        -0.4318 
      5 CA         28.5717   23.1702    1.1375 C.3       1 UNK         0.0824 
      6 C6         28.9631   22.1481    2.2388 C.3       12 UNK        -0.0944 
      7 S7         30.6494   21.4821    2.0284 S.3       12 UNK        -0.2672 
      8 C8         31.6641   22.6281    3.0357 C.3       12 UNK         0.0333 
      9 C9         32.3399   23.7800    2.2816 C.ar      12 UNK        -0.0807 
     10 C10        33.2334   24.5965    2.9865 C.ar      12 UNK        -0.0894 
     11 C11        33.9310   25.6249    2.3434 C.ar      12 UNK        -0.0804 
     12 C12        33.7079   25.8571    0.9837 C.ar      12 UNK        -0.0824 
     13 C13        32.8084   25.0655    0.2656 C.ar      12 UNK        -0.0762 
     14 C14        32.1385   24.0250    0.9156 C.ar      12 UNK        -0.0782 
     15 C15        32.6004   25.3028   -1.2245 C.3       12 UNK         0.0230 
     16 S16        31.7171   26.8573   -1.5737 S.3       12 UNK        -0.2608 
     17 C17        30.0380   26.5088   -0.9503 C.3       12 UNK        -0.0989 
     18 CA         29.4880   27.6602   -0.0699 C.3       5 UNK         0.0716 
     19 N          28.0271   27.7550   -0.1641 N.am      5 UNK        -0.4135 
     20 C          27.2574   28.6895    0.4049 C.2       4 UNK         0.5031 
     21 O          27.6932   29.5369    1.1839 O.2       4 UNK        -0.5229 
     22 CA         25.7528   28.7115    0.0665 C.3       4 UNK         0.0329 
     23 CB         25.4510   29.8315   -0.9474 C.3       4 UNK        -0.2001 
     24 N          25.1515   27.4400   -0.3688 N.am      4 UNK        -0.4303 
     25 C          25.4070   26.6965   -1.4547 C.2       3 UNK         0.5044 
     26 O          26.3055   26.9478   -2.2589 O.2       3 UNK        -0.5152 
     27 CA         24.5444   25.4299   -1.6319 C.3       3 UNK         0.0319 
     28 CB         24.8231   24.7056   -2.9624 C.3       3 UNK        -0.2001 
     29 N          24.7579   24.4882   -0.5328 N.am      3 UNK        -0.4354 
     30 C          24.2676   24.6098    0.7087 C.2       2 UNK         0.4964 
     31 O          23.4806   25.4951    1.0469 O.2       2 UNK        -0.5047 
     32 CA         24.7809   23.6108    1.7599 C.3       2 UNK         0.0288 
     33 CB         23.8267   22.4119    1.8779 C.3       2 UNK        -0.2113 
     34 N          26.1382   23.1252    1.4898 N.am      2 UNK        -0.4145 
     35 C          27.2435   23.8821    1.4570 C.2       1 UNK         0.5006 
     36 O          27.2443   25.1009    1.6377 O.2       1 UNK        -0.5103 
     37 C          30.0299   27.6074    1.3769 C.2       5 UNK         0.5055 
     38 O          31.0572   28.2238    1.6492 O.2       5 UNK        -0.5220 
     39 N          29.3145   26.9251    2.2838 N.am      6 UNK        -0.4450 
     40 CA         29.6565   26.8506    3.7073 C.3       6 UNK         0.0367 
     41 CB         28.9570   25.6407    4.3421 C.3       6 UNK        -0.1929 
     42 C          29.3257   28.1291    4.5002 C.2       6 UNK         0.5070 
     43 O          29.8647   28.2996    5.5923 O.2       6 UNK        -0.5237 
     44 N          28.4425   28.9900    3.9761 N.am      7 UNK        -0.4739 
     45 CA         28.1227   30.2921    4.5701 C.3       7 UNK         0.0276 
     46 CB         26.6546   30.6454    4.2791 C.3       7 UNK        -0.1927 
     47 C          29.0626   31.3880    4.0428 C.2       7 UNK         0.5013 
     48 O          29.4120   32.3024    4.7910 O.2       7 UNK        -0.5193 
     49 N          29.4497   31.2745    2.7662 N.am      8 UNK        -0.4253 
     50 CA         30.4116   32.1373    2.0828 C.3       8 UNK         0.0242 
     51 CB         30.3181   31.8541    0.5730 C.3       8 UNK        -0.2000 
     52 C          31.8546   31.9283    2.5807 C.2       8 UNK         0.4948 
     53 O          32.1426   30.9553    3.2800 O.2       8 UNK        -0.5275 
     54 N          32.7415   32.8598    2.1952 N.am      9 UNK        -0.4246 
     55 CA         34.2089   32.8146    2.3306 C.3       9 UNK         0.0261 
     56 CB         34.7847   31.7744    1.3457 C.3       9 UNK        -0.1959 
     57 C          34.7494   32.6056    3.7633 C.2       9 UNK         0.5033 
     58 O          35.9028   32.2002    3.9198 O.2       9 UNK        -0.5390 
     59 N          33.9141   32.8817    4.7762 N.am      10 UNK        -0.4215 
     60 CA         34.1293   32.6202    6.2040 C.3       10 UNK         0.0240 
     61 CB         35.2575   33.5118    6.7683 C.3       10 UNK        -0.1982 
     62 C          34.3194   31.1223    6.5341 C.2       10 UNK         0.4970 
     63 O          35.0185   30.7992    7.4965 O.2       10 UNK        -0.4916 
     64 N          33.6837   30.2344    5.7546 N.am      11 UNK        -0.4279 
     65 CA         33.6905   28.7759    5.9672 C.3       11 UNK         0.1003 
     66 C          32.8971   28.2900    7.2180 C.2       11 UNK         0.5709 
     67 N          32.1177   29.1291    7.8908 N.am      11 UNK        -0.7358 
     68 O          33.0157   27.1287    7.6028 O.2       11 UNK        -0.4999 
     69 C69        33.2474   28.0172    4.6891 C.3       12 UNK        -0.0954 
     70 S70        34.4547   28.1778    3.3340 S.3       12 UNK        -0.2268 
     71 C71        34.9707   26.4491    3.0944 C.3       12 UNK         0.0203 
     72 H72        28.8733   21.9096   -2.6639 H         1 UNK         0.0888 
     73 H73        28.4444   20.2386   -2.2948 H         1 UNK         0.0888 
     74 H74        27.1902   21.3884   -2.7659 H         1 UNK         0.0888 
     75 H75        29.2410   23.1143   -0.8566 H         1 UNK         0.3017 
     76 H76        29.3241   23.9574    1.1672 H         1 UNK         0.0873 
     77 H77        28.8770   22.5843    3.2341 H         1 UNK         0.0745 
     78 H78        28.2752   21.3015    2.2401 H         1 UNK         0.0745 
     79 H79        32.4477   22.0311    3.5046 H         1 UNK         0.0705 
     80 H80        31.0683   23.0323    3.8544 H         1 UNK         0.0705 
     81 H81        33.4109   24.4092    4.0369 H         1 UNK         0.1334 
     82 H82        34.2414   26.6527    0.4815 H         1 UNK         0.1417 
     83 H83        31.4781   23.3966    0.3384 H         1 UNK         0.1562 
     84 H84        32.0616   24.4729   -1.6845 H         1 UNK         0.0748 
     85 H85        33.5741   25.3387   -1.7153 H         1 UNK         0.0748 
     86 H86        30.0109   25.5578   -0.4198 H         1 UNK         0.0940 
     87 H87        29.4082   26.3722   -1.8313 H         1 UNK         0.0940 
     88 H88        29.8466   28.6011   -0.4927 H         1 UNK         0.0703 
     89 H89        27.5728   27.1587   -0.8480 H         1 UNK         0.3081 
     90 H90        25.2437   28.9670    0.9972 H         1 UNK         0.0719 
     91 H91        25.9291   29.6480   -1.9102 H         1 UNK         0.0809 
     92 H92        24.3794   29.9336   -1.1185 H         1 UNK         0.0809 
     93 H93        25.8133   30.7945   -0.5846 H         1 UNK         0.0809 
     94 H94        24.4426   27.0679    0.2570 H         1 UNK         0.2990 
     95 H95        23.4981   25.7431   -1.6332 H         1 UNK         0.0690 
     96 H96        25.8530   24.3513   -3.0243 H         1 UNK         0.0788 
     97 H97        24.6553   25.3704   -3.8110 H         1 UNK         0.0788 
     98 H98        24.1646   23.8464   -3.0916 H         1 UNK         0.0788 
     99 H99        25.4081   23.7364   -0.7069 H         1 UNK         0.2993 
    100 H100       24.8013   24.1331    2.7189 H         1 UNK         0.0949 
    101 H101       23.7912   21.8321    0.9545 H         1 UNK         0.0767 
    102 H102       24.1300   21.7422    2.6830 H         1 UNK         0.0767 
    103 H103       22.8099   22.7411    2.0975 H         1 UNK         0.0767 
    104 H104       26.2413   22.1486    1.2249 H         1 UNK         0.3013 
    105 H105       28.4727   26.4338    1.9881 H         1 UNK         0.3121 
    106 H106       30.7331   26.6868    3.7862 H         1 UNK         0.0774 
    107 H107       29.2699   24.7180    3.8606 H         1 UNK         0.0815 
    108 H108       29.2089   25.5524    5.3999 H         1 UNK         0.0815 
    109 H109       27.8714   25.7149    4.2687 H         1 UNK         0.0815 
    110 H110       28.0756   28.8138    3.0477 H         1 UNK         0.2987 
    111 H111       28.2459   30.2430    5.6545 H         1 UNK         0.0949 
    112 H112       26.4612   30.7446    3.2107 H         1 UNK         0.0806 
    113 H113       25.9791   29.8861    4.6731 H         1 UNK         0.0806 
    114 H114       26.3846   31.5932    4.7466 H         1 UNK         0.0806 
    115 H115       29.0763   30.5008    2.2266 H         1 UNK         0.3010 
    116 H116       30.1284   33.1751    2.2698 H         1 UNK         0.0829 
    117 H117       30.9547   32.5286   -0.0004 H         1 UNK         0.0813 
    118 H118       30.6302   30.8351    0.3401 H         1 UNK         0.0813 
    119 H119       29.2992   31.9824    0.2063 H         1 UNK         0.0813 
    120 H120       32.3906   33.6453    1.6638 H         1 UNK         0.3038 
    121 H121       34.5712   33.7960    2.0212 H         1 UNK         0.0769 
    122 H122       35.8748   31.8032    1.3278 H         1 UNK         0.0811 
    123 H123       34.4425   31.9587    0.3275 H         1 UNK         0.0811 
    124 H124       34.4898   30.7604    1.6187 H         1 UNK         0.0811 
    125 H125       32.9858   33.1934    4.5261 H         1 UNK         0.3204 
    126 H126       33.2044   32.9145    6.7024 H         1 UNK         0.0748 
    127 H127       35.3123   33.4337    7.8548 H         1 UNK         0.0771 
    128 H128       36.2339   33.2290    6.3737 H         1 UNK         0.0771 
    129 H129       35.0905   34.5622    6.5296 H         1 UNK         0.0771 
    130 H130       33.1461   30.5577    4.9544 H         1 UNK         0.2980 
    131 H131       34.7252   28.4912    6.1676 H         1 UNK         0.0545 
    132 H132       31.6133   28.7948    8.6959 H         1 UNK         0.3459 
    133 H133       31.9912   30.0744    7.5698 H         1 UNK         0.3459 
    134 H134       33.0850   26.9578    4.8932 H         1 UNK         0.0616 
    135 H135       32.2940   28.4065    4.3324 H         1 UNK         0.0616 
    136 H136       35.2045   26.0022    4.0620 H         1 UNK         0.0634 
    137 H137       35.9015   26.4430    2.5257 H         1 UNK         0.0634 
@<TRIPOS>BOND
     1    1    2 1    
     2    1   72 1    
     3    1   73 1    
     4    1   74 1    
     5    2    3 2    
     6    2    4 am   BACKBONE|DICT|INTERRES
     7    4    5 1    
     8    4   75 1    
     9    5    6 1    
    10    5   35 1    
    11    5   76 1    
    12    6    7 1    
    13    6   77 1    
    14    6   78 1    
    15    7    8 1    
    16    8    9 1    
    17    8   79 1    
    18    8   80 1    
    19    9   10 ar   
    20    9   14 ar   
    21   10   11 ar   
    22   10   81 1    
    23   11   12 ar   
    24   11   71 1    
    25   12   13 ar   
    26   12   82 1    
    27   13   14 ar   
    28   13   15 1    
    29   14   83 1    
    30   15   16 1    
    31   15   84 1    
    32   15   85 1    
    33   16   17 1    
    34   17   18 1    
    35   17   86 1    
    36   17   87 1    
    37   18   19 1    
    38   18   37 1    
    39   18   88 1    
    40   19   20 am   BACKBONE|DICT|INTERRES
    41   19   89 1    
    42   20   21 2    
    43   20   22 1    
    44   22   23 1    
    45   22   24 1    
    46   22   90 1    
    47   23   91 1    
    48   23   92 1    
    49   23   93 1    
    50   24   25 am   BACKBONE|DICT|INTERRES
    51   24   94 1    
    52   25   26 2    
    53   25   27 1    
    54   27   28 1    
    55   27   29 1    
    56   27   95 1    
    57   28   96 1    
    58   28   97 1    
    59   28   98 1    
    60   29   30 am   BACKBONE|DICT|INTERRES
    61   29   99 1    
    62   30   31 2    
    63   30   32 1    
    64   32   33 1    
    65   32   34 1    
    66   32  100 1    
    67   33  101 1    
    68   33  102 1    
    69   33  103 1    
    70   34   35 am   BACKBONE|DICT|INTERRES
    71   34  104 1    
    72   35   36 2    
    73   37   38 2    
    74   37   39 am   BACKBONE|DICT|INTERRES
    75   39   40 1    
    76   39  105 1    
    77   40   41 1    
    78   40   42 1    
    79   40  106 1    
    80   41  107 1    
    81   41  108 1    
    82   41  109 1    
    83   42   43 2    
    84   42   44 am   BACKBONE|DICT|INTERRES
    85   44   45 1    
    86   44  110 1    
    87   45   46 1    
    88   45   47 1    
    89   45  111 1    
    90   46  112 1    
    91   46  113 1    
    92   46  114 1    
    93   47   48 2    
    94   47   49 am   BACKBONE|DICT|INTERRES
    95   49   50 1    
    96   49  115 1    
    97   50   51 1    
    98   50   52 1    
    99   50  116 1    
   100   51  117 1    
   101   51  118 1    
   102   51  119 1    
   103   52   53 2    
   104   52   54 am   BACKBONE|DICT|INTERRES
   105   54   55 1    
   106   54  120 1    
   107   55   56 1    
   108   55   57 1    
   109   55  121 1    
   110   56  122 1    
   111   56  123 1    
   112   56  124 1    
   113   57   58 2    
   114   57   59 am   BACKBONE|DICT|INTERRES
   115   59   60 1    
   116   59  125 1    
   117   60   61 1    
   118   60   62 1    
   119   60  126 1    
   120   61  127 1    
   121   61  128 1    
   122   61  129 1    
   123   62   63 2    
   124   62   64 am   BACKBONE|DICT|INTERRES
   125   64   65 1    
   126   64  130 1    
   127   65   66 1    
   128   65   69 1    
   129   65  131 1    
   130   66   67 am   BACKBONE|DICT|INTERRES
   131   66   68 2    
   132   67  132 1    
   133   67  133 1    
   134   69   70 1    
   135   69  134 1    
   136   69  135 1    
   137   70   71 1    
   138   71  136 1    
   139   71  137 1    
@<TRIPOS>SUBSTRUCTURE
     1 UNK         1 GROUP             0       ****    0 ROOT    
