@<TRIPOS>MOLECULE
3R136
137   139    1
SMALL
USER_CHARGES


@<TRIPOS>ATOM
      1 CA         30.0786   26.6717    2.5105 C.3       0 UNK        -0.1979 
      2 C          29.5404   25.3351    2.9960 C.2       0 UNK         0.4864 
      3 O          28.6530   25.3029    3.8492 O.2       0 UNK        -0.5359 
      4 N          30.0802   24.2303    2.4616 N.am      1 UNK        -0.4318 
      5 CA         29.7083   22.8563    2.8276 C.3       1 UNK         0.0824 
      6 C6         30.6894   21.8034    2.2598 C.3       12 UNK        -0.0944 
      7 S7         32.4060   22.0723    2.8116 S.3       12 UNK        -0.2672 
      8 C8         33.2485   22.4233    1.2375 C.3       12 UNK         0.0333 
      9 C9         32.9866   23.8405    0.7471 C.ar      12 UNK        -0.0807 
     10 C10        33.7205   24.9025    1.2816 C.ar      12 UNK        -0.0894 
     11 C11        33.5516   26.1997    0.7929 C.ar      12 UNK        -0.0804 
     12 C12        32.6292   26.4333   -0.2317 C.ar      12 UNK        -0.0824 
     13 C13        31.8754   25.3820   -0.7709 C.ar      12 UNK        -0.0762 
     14 C14        32.0621   24.0864   -0.2744 C.ar      12 UNK        -0.0782 
     15 C15        30.9376   25.6073   -1.9567 C.3       12 UNK         0.0230 
     16 S16        29.9862   27.1627   -1.8809 S.3       12 UNK        -0.2608 
     17 C17        28.4378   26.6290   -1.0800 C.3       12 UNK        -0.0989 
     18 CA         27.4315   27.8004   -0.9237 C.3       5 UNK         0.0716 
     19 N          26.0619   27.2993   -0.8197 N.am      5 UNK        -0.4135 
     20 C          24.9899   27.8674   -1.3887 C.2       4 UNK         0.5031 
     21 O          25.0452   28.8964   -2.0645 O.2       4 UNK        -0.5229 
     22 CA         23.6235   27.1717   -1.2223 C.3       4 UNK         0.0329 
     23 CB         23.1787   26.5435   -2.5542 C.3       4 UNK        -0.2001 
     24 N          23.6177   26.1328   -0.1913 N.am      4 UNK        -0.4303 
     25 C          23.4763   26.3598    1.1211 C.2       3 UNK         0.5044 
     26 O          23.2505   27.4699    1.6038 O.2       3 UNK        -0.5152 
     27 CA         23.6201   25.1445    2.0591 C.3       3 UNK         0.0319 
     28 CB         22.2354   24.5886    2.4299 C.3       3 UNK        -0.2001 
     29 N          24.4556   24.0506    1.5404 N.am      3 UNK        -0.4354 
     30 C          25.7455   24.1671    1.1968 C.2       2 UNK         0.4964 
     31 O          26.3531   25.2378    1.1685 O.2       2 UNK        -0.5047 
     32 CA         26.4712   22.8923    0.7521 C.3       2 UNK         0.0288 
     33 CB         26.4665   22.7799   -0.7816 C.3       2 UNK        -0.2113 
     34 N          27.8530   22.9519    1.2247 N.am      2 UNK        -0.4145 
     35 C          28.2630   22.5060    2.4196 C.2       1 UNK         0.5006 
     36 O          27.5552   21.8522    3.1885 O.2       1 UNK        -0.5103 
     37 C          27.7663   28.6777    0.2978 C.2       5 UNK         0.5055 
     38 O          27.1935   28.4953    1.3743 O.2       5 UNK        -0.5220 
     39 N          28.7235   29.5889    0.1086 N.am      6 UNK        -0.4450 
     40 CA         29.3489   30.4307    1.1217 C.3       6 UNK         0.0367 
     41 CB         28.3777   31.5193    1.6182 C.3       6 UNK        -0.1929 
     42 C          30.5898   31.0610    0.4814 C.2       6 UNK         0.5070 
     43 O          30.6061   31.2571   -0.7375 O.2       6 UNK        -0.5237 
     44 N          31.5889   31.3893    1.3030 N.am      7 UNK        -0.4739 
     45 CA         32.8048   32.0918    0.8914 C.3       7 UNK         0.0276 
     46 CB         33.7501   31.1730    0.0884 C.3       7 UNK        -0.1927 
     47 C          33.4503   32.6864    2.1429 C.2       7 UNK         0.5013 
     48 O          33.1322   33.8198    2.5068 O.2       7 UNK        -0.5193 
     49 N          34.2871   31.8950    2.8276 N.am      8 UNK        -0.4253 
     50 CA         34.8514   32.2014    4.1453 C.3       8 UNK         0.0242 
     51 CB         36.1280   31.3636    4.3466 C.3       8 UNK        -0.2000 
     52 C          33.7937   31.9409    5.2332 C.2       8 UNK         0.4948 
     53 O          33.9430   31.0182    6.0372 O.2       8 UNK        -0.5275 
     54 N          32.6929   32.7046    5.1679 N.am      9 UNK        -0.4246 
     55 CA         31.4072   32.4425    5.8194 C.3       9 UNK         0.0261 
     56 CB         31.5071   32.6486    7.3491 C.3       9 UNK        -0.1959 
     57 C          30.8817   31.0608    5.3796 C.2       9 UNK         0.5033 
     58 O          30.7834   30.8194    4.1738 O.2       9 UNK        -0.5390 
     59 N          30.6137   30.1743    6.3455 N.am      10 UNK        -0.4215 
     60 CA         30.2361   28.7755    6.1312 C.3       10 UNK         0.0240 
     61 CB         29.4132   28.2988    7.3417 C.3       10 UNK        -0.1982 
     62 C          31.4363   27.8386    5.8722 C.2       10 UNK         0.4970 
     63 O          31.2254   26.6297    5.7791 O.2       10 UNK        -0.4916 
     64 N          32.6604   28.3798    5.7773 N.am      11 UNK        -0.4279 
     65 CA         33.9105   27.6535    5.4859 C.3       11 UNK         0.1003 
     66 C          34.3823   26.6841    6.6132 C.2       11 UNK         0.5709 
     67 N          33.8703   26.7893    7.8341 N.am      11 UNK        -0.7358 
     68 O          35.2545   25.8463    6.3945 O.2       11 UNK        -0.4999 
     69 C69        33.9175   26.9924    4.0757 C.3       12 UNK        -0.0954 
     70 S70        33.6315   28.1932    2.7306 S.3       12 UNK        -0.2268 
     71 C71        34.4110   27.3372    1.3264 C.3       12 UNK         0.0203 
     72 H72        30.9851   26.9294    3.0532 H         1 UNK         0.0888 
     73 H73        29.3467   27.4598    2.6816 H         1 UNK         0.0888 
     74 H74        30.3140   26.6500    1.4482 H         1 UNK         0.0888 
     75 H75        30.8505   24.3179    1.8120 H         1 UNK         0.3017 
     76 H76        29.7507   22.7957    3.9176 H         1 UNK         0.0873 
     77 H77        30.3997   20.8030    2.5880 H         1 UNK         0.0745 
     78 H78        30.6474   21.7831    1.1695 H         1 UNK         0.0745 
     79 H79        34.3213   22.2869    1.3822 H         1 UNK         0.0705 
     80 H80        32.9542   21.6884    0.4865 H         1 UNK         0.0705 
     81 H81        34.4447   24.7129    2.0623 H         1 UNK         0.1334 
     82 H82        32.5185   27.4343   -0.6259 H         1 UNK         0.1417 
     83 H83        31.5152   23.2610   -0.7101 H         1 UNK         0.1562 
     84 H84        30.2483   24.7696   -2.0735 H         1 UNK         0.0748 
     85 H85        31.5453   25.6274   -2.8623 H         1 UNK         0.0748 
     86 H86        28.6482   26.1435   -0.1259 H         1 UNK         0.0940 
     87 H87        28.0047   25.8568   -1.7178 H         1 UNK         0.0940 
     88 H88        27.4997   28.4277   -1.8156 H         1 UNK         0.0703 
     89 H89        25.9372   26.5297   -0.1678 H         1 UNK         0.3081 
     90 H90        22.8977   27.9420   -0.9526 H         1 UNK         0.0719 
     91 H91        23.8689   25.7666   -2.8857 H         1 UNK         0.0809 
     92 H92        22.1862   26.0999   -2.4723 H         1 UNK         0.0809 
     93 H93        23.1304   27.2944   -3.3442 H         1 UNK         0.0809 
     94 H94        23.7877   25.1854   -0.4954 H         1 UNK         0.2990 
     95 H95        24.0967   25.5059    2.9729 H         1 UNK         0.0690 
     96 H96        22.3101   23.8031    3.1822 H         1 UNK         0.0788 
     97 H97        21.7202   24.1763    1.5614 H         1 UNK         0.0788 
     98 H98        21.5984   25.3709    2.8454 H         1 UNK         0.0788 
     99 H99        24.0250   23.1373    1.5063 H         1 UNK         0.2993 
    100 H100       25.9685   22.0187    1.1734 H         1 UNK         0.0949 
    101 H101       26.9375   23.6422   -1.2550 H         1 UNK         0.0767 
    102 H102       26.9961   21.8865   -1.1133 H         1 UNK         0.0767 
    103 H103       25.4478   22.7125   -1.1659 H         1 UNK         0.0767 
    104 H104       28.4814   23.5368    0.6954 H         1 UNK         0.3013 
    105 H105       29.1641   29.6717   -0.8014 H         1 UNK         0.3121 
    106 H106       29.6606   29.8011    1.9571 H         1 UNK         0.0774 
    107 H107       27.5049   31.0873    2.1071 H         1 UNK         0.0815 
    108 H108       28.8636   32.1679    2.3484 H         1 UNK         0.0815 
    109 H109       28.0278   32.1494    0.7998 H         1 UNK         0.0815 
    110 H110       31.4745   31.2210    2.3010 H         1 UNK         0.2987 
    111 H111       32.5230   32.9319    0.2524 H         1 UNK         0.0949 
    112 H112       33.9722   30.2519    0.6213 H         1 UNK         0.0806 
    113 H113       33.3148   30.8983   -0.8723 H         1 UNK         0.0806 
    114 H114       34.6972   31.6717   -0.1223 H         1 UNK         0.0806 
    115 H115       34.4404   30.9574    2.4843 H         1 UNK         0.3010 
    116 H116       35.1260   33.2576    4.1892 H         1 UNK         0.0829 
    117 H117       36.8803   31.6016    3.5945 H         1 UNK         0.0813 
    118 H118       36.5731   31.5594    5.3231 H         1 UNK         0.0813 
    119 H119       35.9241   30.2936    4.2891 H         1 UNK         0.0813 
    120 H120       32.6668   33.3850    4.4140 H         1 UNK         0.3038 
    121 H121       30.7019   33.1769    5.4277 H         1 UNK         0.0769 
    122 H122       32.1907   31.9436    7.8236 H         1 UNK         0.0811 
    123 H123       30.5321   32.5457    7.8273 H         1 UNK         0.0811 
    124 H124       31.8657   33.6517    7.5804 H         1 UNK         0.0811 
    125 H125       30.7533   30.4617    7.3035 H         1 UNK         0.3204 
    126 H126       29.5977   28.7182    5.2466 H         1 UNK         0.0748 
    127 H127       29.0466   27.2822    7.1914 H         1 UNK         0.0771 
    128 H128       30.0040   28.3002    8.2585 H         1 UNK         0.0771 
    129 H129       28.5402   28.9317    7.5022 H         1 UNK         0.0771 
    130 H130       32.7772   29.3805    5.8937 H         1 UNK         0.2980 
    131 H131       34.6813   28.4239    5.4713 H         1 UNK         0.0545 
    132 H132       33.1648   27.4795    8.0325 H         1 UNK         0.3459 
    133 H133       34.1902   26.1671    8.5592 H         1 UNK         0.3459 
    134 H134       33.1699   26.2010    4.0087 H         1 UNK         0.0616 
    135 H135       34.8811   26.5139    3.8945 H         1 UNK         0.0616 
    136 H136       35.3943   26.9671    1.6203 H         1 UNK         0.0634 
    137 H137       34.5947   28.0558    0.5279 H         1 UNK         0.0634 
@<TRIPOS>BOND
     1    1    2 1    
     2    1   72 1    
     3    1   73 1    
     4    1   74 1    
     5    2    3 2    
     6    2    4 am   BACKBONE|DICT|INTERRES
     7    4    5 1    
     8    4   75 1    
     9    5    6 1    
    10    5   35 1    
    11    5   76 1    
    12    6    7 1    
    13    6   77 1    
    14    6   78 1    
    15    7    8 1    
    16    8    9 1    
    17    8   79 1    
    18    8   80 1    
    19    9   10 ar   
    20    9   14 ar   
    21   10   11 ar   
    22   10   81 1    
    23   11   12 ar   
    24   11   71 1    
    25   12   13 ar   
    26   12   82 1    
    27   13   14 ar   
    28   13   15 1    
    29   14   83 1    
    30   15   16 1    
    31   15   84 1    
    32   15   85 1    
    33   16   17 1    
    34   17   18 1    
    35   17   86 1    
    36   17   87 1    
    37   18   19 1    
    38   18   37 1    
    39   18   88 1    
    40   19   20 am   BACKBONE|DICT|INTERRES
    41   19   89 1    
    42   20   21 2    
    43   20   22 1    
    44   22   23 1    
    45   22   24 1    
    46   22   90 1    
    47   23   91 1    
    48   23   92 1    
    49   23   93 1    
    50   24   25 am   BACKBONE|DICT|INTERRES
    51   24   94 1    
    52   25   26 2    
    53   25   27 1    
    54   27   28 1    
    55   27   29 1    
    56   27   95 1    
    57   28   96 1    
    58   28   97 1    
    59   28   98 1    
    60   29   30 am   BACKBONE|DICT|INTERRES
    61   29   99 1    
    62   30   31 2    
    63   30   32 1    
    64   32   33 1    
    65   32   34 1    
    66   32  100 1    
    67   33  101 1    
    68   33  102 1    
    69   33  103 1    
    70   34   35 am   BACKBONE|DICT|INTERRES
    71   34  104 1    
    72   35   36 2    
    73   37   38 2    
    74   37   39 am   BACKBONE|DICT|INTERRES
    75   39   40 1    
    76   39  105 1    
    77   40   41 1    
    78   40   42 1    
    79   40  106 1    
    80   41  107 1    
    81   41  108 1    
    82   41  109 1    
    83   42   43 2    
    84   42   44 am   BACKBONE|DICT|INTERRES
    85   44   45 1    
    86   44  110 1    
    87   45   46 1    
    88   45   47 1    
    89   45  111 1    
    90   46  112 1    
    91   46  113 1    
    92   46  114 1    
    93   47   48 2    
    94   47   49 am   BACKBONE|DICT|INTERRES
    95   49   50 1    
    96   49  115 1    
    97   50   51 1    
    98   50   52 1    
    99   50  116 1    
   100   51  117 1    
   101   51  118 1    
   102   51  119 1    
   103   52   53 2    
   104   52   54 am   BACKBONE|DICT|INTERRES
   105   54   55 1    
   106   54  120 1    
   107   55   56 1    
   108   55   57 1    
   109   55  121 1    
   110   56  122 1    
   111   56  123 1    
   112   56  124 1    
   113   57   58 2    
   114   57   59 am   BACKBONE|DICT|INTERRES
   115   59   60 1    
   116   59  125 1    
   117   60   61 1    
   118   60   62 1    
   119   60  126 1    
   120   61  127 1    
   121   61  128 1    
   122   61  129 1    
   123   62   63 2    
   124   62   64 am   BACKBONE|DICT|INTERRES
   125   64   65 1    
   126   64  130 1    
   127   65   66 1    
   128   65   69 1    
   129   65  131 1    
   130   66   67 am   BACKBONE|DICT|INTERRES
   131   66   68 2    
   132   67  132 1    
   133   67  133 1    
   134   69   70 1    
   135   69  134 1    
   136   69  135 1    
   137   70   71 1    
   138   71  136 1    
   139   71  137 1    
@<TRIPOS>SUBSTRUCTURE
     1 UNK         1 GROUP             0       ****    0 ROOT    
