@<TRIPOS>MOLECULE
3R136
137   139    1
SMALL
USER_CHARGES


@<TRIPOS>ATOM
      1 CA         26.3316   23.7185    3.1198 C.3       0 UNK        -0.1979 
      2 C          27.3205   23.3757    2.0177 C.2       0 UNK         0.4864 
      3 O          27.7690   24.2776    1.3050 O.2       0 UNK        -0.5359 
      4 N          27.6335   22.0780    1.8595 N.am      1 UNK        -0.4318 
      5 CA         28.6107   21.5117    0.9114 C.3       1 UNK         0.0824 
      6 C6         30.0757   21.8802    1.2906 C.3       12 UNK        -0.0944 
      7 S7         30.7454   20.8082    2.6074 S.3       12 UNK        -0.2672 
      8 C8         30.1055   21.5573    4.1456 C.3       12 UNK         0.0333 
      9 C9         30.5223   23.0040    4.4070 C.ar      12 UNK        -0.0807 
     10 C10        31.7294   23.5338    3.9336 C.ar      12 UNK        -0.0894 
     11 C11        32.0855   24.8561    4.2139 C.ar      12 UNK        -0.0804 
     12 C12        31.2372   25.6504    4.9897 C.ar      12 UNK        -0.0824 
     13 C13        30.0346   25.1318    5.4773 C.ar      12 UNK        -0.0762 
     14 C14        29.6847   23.8118    5.1821 C.ar      12 UNK        -0.0782 
     15 C15        29.1137   25.9858    6.3349 C.3       12 UNK         0.0230 
     16 S16        27.7375   26.6695    5.3608 S.3       12 UNK        -0.2608 
     17 C17        28.5770   27.9961    4.4364 C.3       12 UNK        -0.0989 
     18 CA         28.9145   27.6175    2.9660 C.3       5 UNK         0.0716 
     19 N          27.7514   27.1912    2.1761 N.am      5 UNK        -0.4135 
     20 C          26.6917   27.9486    1.8530 C.2       4 UNK         0.5031 
     21 O          26.5299   29.1070    2.2406 O.2       4 UNK        -0.5229 
     22 CA         25.6674   27.3035    0.8956 C.3       4 UNK         0.0329 
     23 CB         24.6683   28.3220    0.3070 C.3       4 UNK        -0.2001 
     24 N          26.3124   26.5299   -0.1751 N.am      4 UNK        -0.4303 
     25 C          27.2133   26.9729   -1.0682 C.2       3 UNK         0.5044 
     26 O          27.5687   28.1472   -1.1546 O.2       3 UNK        -0.5152 
     27 CA         27.8864   25.9351   -1.9805 C.3       3 UNK         0.0319 
     28 CB         29.4117   25.9468   -1.7670 C.3       3 UNK        -0.2001 
     29 N          27.4009   24.5799   -1.7205 N.am      3 UNK        -0.4354 
     30 C          26.7389   23.8044   -2.5901 C.2       2 UNK         0.4964 
     31 O          26.4168   24.1739   -3.7204 O.2       2 UNK        -0.5047 
     32 CA         26.3463   22.3837   -2.1245 C.3       2 UNK         0.0288 
     33 CB         26.5918   21.3244   -3.2207 C.3       2 UNK        -0.2113 
     34 N          26.9529   21.9717   -0.8487 N.am      2 UNK        -0.4145 
     35 C          28.2580   21.8113   -0.5673 C.2       1 UNK         0.5006 
     36 O          29.1508   21.9116   -1.4107 O.2       1 UNK        -0.5103 
     37 C          29.7459   28.7155    2.2563 C.2       5 UNK         0.5055 
     38 O          30.3717   29.5347    2.9334 O.2       5 UNK        -0.5220 
     39 N          29.7357   28.7179    0.9117 N.am      6 UNK        -0.4450 
     40 CA         30.4872   29.5846   -0.0038 C.3       6 UNK         0.0367 
     41 CB         31.9942   29.2689    0.0717 C.3       6 UNK        -0.1929 
     42 C          30.1688   31.0751    0.2021 C.2       6 UNK         0.5070 
     43 O          29.2016   31.5750   -0.3709 O.2       6 UNK        -0.5237 
     44 N          30.9636   31.7510    1.0409 N.am      7 UNK        -0.4739 
     45 CA         30.7747   33.1413    1.4662 C.3       7 UNK         0.0276 
     46 CB         32.1409   33.6962    1.9085 C.3       7 UNK        -0.1927 
     47 C          29.7228   33.2990    2.5864 C.2       7 UNK         0.5013 
     48 O          29.6334   34.3785    3.1724 O.2       7 UNK        -0.5193 
     49 N          28.9814   32.2210    2.8859 N.am      8 UNK        -0.4253 
     50 CA         28.0812   32.0252    4.0272 C.3       8 UNK         0.0242 
     51 CB         26.9179   33.0404    4.0241 C.3       8 UNK        -0.2000 
     52 C          28.8633   31.9870    5.3543 C.2       8 UNK         0.4948 
     53 O          28.3890   32.5086    6.3654 O.2       8 UNK        -0.5275 
     54 N          30.0611   31.3881    5.3161 N.am      9 UNK        -0.4246 
     55 CA         31.0315   31.3526    6.4049 C.3       9 UNK         0.0261 
     56 CB         31.6377   32.7579    6.6394 C.3       9 UNK        -0.1959 
     57 C          32.0672   30.2679    6.0784 C.2       9 UNK         0.5033 
     58 O          31.7206   29.0869    6.0990 O.2       9 UNK        -0.5390 
     59 N          33.3091   30.6741    5.7913 N.am      10 UNK        -0.4215 
     60 CA         34.3997   29.7973    5.3709 C.3       10 UNK         0.0240 
     61 CB         35.7300   30.3936    5.8619 C.3       10 UNK        -0.1982 
     62 C          34.4147   29.6415    3.8426 C.2       10 UNK         0.4970 
     63 O          33.9474   30.5307    3.1259 O.2       10 UNK        -0.4916 
     64 N          35.0007   28.5305    3.3854 N.am      11 UNK        -0.4279 
     65 CA         35.1960   28.1981    1.9643 C.3       11 UNK         0.1003 
     66 C          36.5969   28.5988    1.4164 C.2       11 UNK         0.5709 
     67 N          37.4821   29.1909    2.2102 N.am      11 UNK        -0.7358 
     68 O          36.8835   28.3840    0.2410 O.2       11 UNK        -0.4999 
     69 C69        34.8731   26.7065    1.6799 C.3       12 UNK        -0.0954 
     70 S70        33.1519   26.2594    2.0934 S.3       12 UNK        -0.2268 
     71 C71        33.3936   25.4212    3.6880 C.3       12 UNK         0.0203 
     72 H72        25.9343   22.8274    3.6052 H         1 UNK         0.0888 
     73 H73        26.8201   24.3269    3.8784 H         1 UNK         0.0888 
     74 H74        25.4947   24.2854    2.7140 H         1 UNK         0.0888 
     75 H75        27.1942   21.3982    2.4649 H         1 UNK         0.3017 
     76 H76        28.5100   20.4277    0.9867 H         1 UNK         0.0873 
     77 H77        30.7571   21.7470    0.4494 H         1 UNK         0.0745 
     78 H78        30.1651   22.9310    1.5696 H         1 UNK         0.0745 
     79 H79        30.4519   20.9515    4.9837 H         1 UNK         0.0705 
     80 H80        29.0187   21.4736    4.1442 H         1 UNK         0.0705 
     81 H81        32.3970   22.9215    3.3438 H         1 UNK         0.1334 
     82 H82        31.5123   26.6730    5.2088 H         1 UNK         0.1417 
     83 H83        28.7552   23.4123    5.5648 H         1 UNK         0.1562 
     84 H84        29.6676   26.7931    6.8174 H         1 UNK         0.0748 
     85 H85        28.7029   25.3781    7.1425 H         1 UNK         0.0748 
     86 H86        29.4806   28.2763    4.9786 H         1 UNK         0.0940 
     87 H87        27.9330   28.8730    4.4691 H         1 UNK         0.0940 
     88 H88        29.5711   26.7474    2.9957 H         1 UNK         0.0703 
     89 H89        27.7882   26.2389    1.8227 H         1 UNK         0.3081 
     90 H90        25.0992   26.5907    1.4949 H         1 UNK         0.0719 
     91 H91        25.1740   29.1007   -0.2650 H         1 UNK         0.0809 
     92 H92        23.9476   27.8367   -0.3509 H         1 UNK         0.0809 
     93 H93        24.1028   28.8164    1.0979 H         1 UNK         0.0809 
     94 H94        26.1189   25.5388   -0.1725 H         1 UNK         0.2990 
     95 H95        27.6780   26.2309   -3.0106 H         1 UNK         0.0690 
     96 H96        29.9055   25.2238   -2.4167 H         1 UNK         0.0788 
     97 H97        29.6774   25.7031   -0.7371 H         1 UNK         0.0788 
     98 H98        29.8368   26.9253   -1.9943 H         1 UNK         0.0788 
     99 H99        27.6290   24.2015   -0.8071 H         1 UNK         0.2993 
    100 H100       25.2708   22.4229   -1.9445 H         1 UNK         0.0949 
    101 H101       27.6405   21.2799   -3.5158 H         1 UNK         0.0767 
    102 H102       26.2945   20.3306   -2.8858 H         1 UNK         0.0767 
    103 H103       26.0135   21.5475   -4.1182 H         1 UNK         0.0767 
    104 H104       26.3051   21.8617   -0.0808 H         1 UNK         0.3013 
    105 H105       29.0836   28.0980    0.4490 H         1 UNK         0.3121 
    106 H106       30.1508   29.3363   -1.0116 H         1 UNK         0.0774 
    107 H107       32.5706   29.9227   -0.5840 H         1 UNK         0.0815 
    108 H108       32.3783   29.3895    1.0838 H         1 UNK         0.0815 
    109 H109       32.1954   28.2427   -0.2358 H         1 UNK         0.0815 
    110 H110       31.6926   31.2337    1.5162 H         1 UNK         0.2987 
    111 H111       30.4249   33.7273    0.6135 H         1 UNK         0.0949 
    112 H112       32.8799   33.6137    1.1114 H         1 UNK         0.0806 
    113 H113       32.0725   34.7521    2.1737 H         1 UNK         0.0806 
    114 H114       32.5272   33.1643    2.7793 H         1 UNK         0.0806 
    115 H115       29.1850   31.3828    2.3569 H         1 UNK         0.3010 
    116 H116       27.6419   31.0373    3.8968 H         1 UNK         0.0829 
    117 H117       26.4056   33.0529    3.0622 H         1 UNK         0.0813 
    118 H118       26.1773   32.7821    4.7818 H         1 UNK         0.0813 
    119 H119       27.2578   34.0537    4.2391 H         1 UNK         0.0813 
    120 H120       30.3364   30.8952    4.4696 H         1 UNK         0.3038 
    121 H121       30.5208   31.0370    7.3169 H         1 UNK         0.0769 
    122 H122       32.4131   32.7342    7.4064 H         1 UNK         0.0811 
    123 H123       30.8801   33.4602    6.9873 H         1 UNK         0.0811 
    124 H124       32.0705   33.1750    5.7292 H         1 UNK         0.0811 
    125 H125       33.4881   31.6661    5.7413 H         1 UNK         0.3204 
    126 H126       34.2695   28.8123    5.8253 H         1 UNK         0.0748 
    127 H127       36.5692   29.7417    5.6166 H         1 UNK         0.0771 
    128 H128       35.9291   31.3668    5.4107 H         1 UNK         0.0771 
    129 H129       35.7302   30.5210    6.9448 H         1 UNK         0.0771 
    130 H130       35.3899   27.8733    4.0445 H         1 UNK         0.2980 
    131 H131       34.5029   28.7902    1.3694 H         1 UNK         0.0545 
    132 H132       38.3817   29.4491    1.8363 H         1 UNK         0.3459 
    133 H133       37.2582   29.3928    3.1704 H         1 UNK         0.3459 
    134 H134       35.5650   26.0538    2.2147 H         1 UNK         0.0616 
    135 H135       35.0086   26.4841    0.6199 H         1 UNK         0.0616 
    136 H136       34.1265   24.6213    3.5713 H         1 UNK         0.0634 
    137 H137       33.8111   26.1236    4.4103 H         1 UNK         0.0634 
@<TRIPOS>BOND
     1    1    2 1    
     2    1   72 1    
     3    1   73 1    
     4    1   74 1    
     5    2    3 2    
     6    2    4 am   BACKBONE|DICT|INTERRES
     7    4    5 1    
     8    4   75 1    
     9    5    6 1    
    10    5   35 1    
    11    5   76 1    
    12    6    7 1    
    13    6   77 1    
    14    6   78 1    
    15    7    8 1    
    16    8    9 1    
    17    8   79 1    
    18    8   80 1    
    19    9   10 ar   
    20    9   14 ar   
    21   10   11 ar   
    22   10   81 1    
    23   11   12 ar   
    24   11   71 1    
    25   12   13 ar   
    26   12   82 1    
    27   13   14 ar   
    28   13   15 1    
    29   14   83 1    
    30   15   16 1    
    31   15   84 1    
    32   15   85 1    
    33   16   17 1    
    34   17   18 1    
    35   17   86 1    
    36   17   87 1    
    37   18   19 1    
    38   18   37 1    
    39   18   88 1    
    40   19   20 am   BACKBONE|DICT|INTERRES
    41   19   89 1    
    42   20   21 2    
    43   20   22 1    
    44   22   23 1    
    45   22   24 1    
    46   22   90 1    
    47   23   91 1    
    48   23   92 1    
    49   23   93 1    
    50   24   25 am   BACKBONE|DICT|INTERRES
    51   24   94 1    
    52   25   26 2    
    53   25   27 1    
    54   27   28 1    
    55   27   29 1    
    56   27   95 1    
    57   28   96 1    
    58   28   97 1    
    59   28   98 1    
    60   29   30 am   BACKBONE|DICT|INTERRES
    61   29   99 1    
    62   30   31 2    
    63   30   32 1    
    64   32   33 1    
    65   32   34 1    
    66   32  100 1    
    67   33  101 1    
    68   33  102 1    
    69   33  103 1    
    70   34   35 am   BACKBONE|DICT|INTERRES
    71   34  104 1    
    72   35   36 2    
    73   37   38 2    
    74   37   39 am   BACKBONE|DICT|INTERRES
    75   39   40 1    
    76   39  105 1    
    77   40   41 1    
    78   40   42 1    
    79   40  106 1    
    80   41  107 1    
    81   41  108 1    
    82   41  109 1    
    83   42   43 2    
    84   42   44 am   BACKBONE|DICT|INTERRES
    85   44   45 1    
    86   44  110 1    
    87   45   46 1    
    88   45   47 1    
    89   45  111 1    
    90   46  112 1    
    91   46  113 1    
    92   46  114 1    
    93   47   48 2    
    94   47   49 am   BACKBONE|DICT|INTERRES
    95   49   50 1    
    96   49  115 1    
    97   50   51 1    
    98   50   52 1    
    99   50  116 1    
   100   51  117 1    
   101   51  118 1    
   102   51  119 1    
   103   52   53 2    
   104   52   54 am   BACKBONE|DICT|INTERRES
   105   54   55 1    
   106   54  120 1    
   107   55   56 1    
   108   55   57 1    
   109   55  121 1    
   110   56  122 1    
   111   56  123 1    
   112   56  124 1    
   113   57   58 2    
   114   57   59 am   BACKBONE|DICT|INTERRES
   115   59   60 1    
   116   59  125 1    
   117   60   61 1    
   118   60   62 1    
   119   60  126 1    
   120   61  127 1    
   121   61  128 1    
   122   61  129 1    
   123   62   63 2    
   124   62   64 am   BACKBONE|DICT|INTERRES
   125   64   65 1    
   126   64  130 1    
   127   65   66 1    
   128   65   69 1    
   129   65  131 1    
   130   66   67 am   BACKBONE|DICT|INTERRES
   131   66   68 2    
   132   67  132 1    
   133   67  133 1    
   134   69   70 1    
   135   69  134 1    
   136   69  135 1    
   137   70   71 1    
   138   71  136 1    
   139   71  137 1    
@<TRIPOS>SUBSTRUCTURE
     1 UNK         1 GROUP             0       ****    0 ROOT    
