@<TRIPOS>MOLECULE
3R136
137   139    1
SMALL
USER_CHARGES


@<TRIPOS>ATOM
      1 CA         24.9779   21.7911    4.4477 C.3       0 UNK        -0.1979 
      2 C          25.9633   22.2225    3.3711 C.2       0 UNK         0.4864 
      3 O          26.1981   23.4210    3.2166 O.2       0 UNK        -0.5359 
      4 N          26.5377   21.2481    2.6480 N.am      1 UNK        -0.4318 
      5 CA         27.4693   21.3891    1.5190 C.3       1 UNK         0.0824 
      6 C6         28.6715   22.3255    1.8238 C.3       12 UNK        -0.0944 
      7 S7         30.1198   22.0183    0.7549 S.3       12 UNK        -0.2672 
      8 C8         31.4926   22.1205    1.9488 C.3       12 UNK         0.0333 
      9 C9         31.7293   23.5523    2.4084 C.ar      12 UNK        -0.0807 
     10 C10        32.5743   24.3949    1.6802 C.ar      12 UNK        -0.0894 
     11 C11        32.7906   25.7166    2.0842 C.ar      12 UNK        -0.0804 
     12 C12        32.1344   26.1941    3.2262 C.ar      12 UNK        -0.0824 
     13 C13        31.2858   25.3621    3.9621 C.ar      12 UNK        -0.0762 
     14 C14        31.1002   24.0387    3.5571 C.ar      12 UNK        -0.0782 
     15 C15        30.5564   25.8857    5.1906 C.3       12 UNK         0.0230 
     16 S16        28.7993   26.2102    4.8384 S.3       12 UNK        -0.2608 
     17 C17        28.8731   27.8314    4.0013 C.3       12 UNK        -0.0989 
     18 CA         29.0168   27.7297    2.4574 C.3       5 UNK         0.0716 
     19 N          28.0208   26.8692    1.8116 N.am      5 UNK        -0.4135 
     20 C          26.6990   27.0680    1.7148 C.2       4 UNK         0.5031 
     21 O          26.0984   27.9795    2.2857 O.2       4 UNK        -0.5229 
     22 CA         25.9296   26.1049    0.7805 C.3       4 UNK         0.0329 
     23 CB         24.7180   26.7860    0.1101 C.3       4 UNK        -0.2001 
     24 N          26.7726   25.4498   -0.2355 N.am      4 UNK        -0.4303 
     25 C          27.5439   26.0468   -1.1624 C.2       3 UNK         0.5044 
     26 O          27.6224   27.2686   -1.2934 O.2       3 UNK        -0.5152 
     27 CA         28.4438   25.1560   -2.0404 C.3       3 UNK         0.0319 
     28 CB         29.9161   25.3271   -1.6243 C.3       3 UNK        -0.2001 
     29 N          28.1034   23.7347   -1.9736 N.am      3 UNK        -0.4354 
     30 C          27.0641   23.1606   -2.5968 C.2       2 UNK         0.4964 
     31 O          26.3189   23.7529   -3.3772 O.2       2 UNK        -0.5047 
     32 CA         26.7930   21.6805   -2.2645 C.3       2 UNK         0.0288 
     33 CB         27.4583   20.7634   -3.3035 C.3       2 UNK        -0.2113 
     34 N          27.2448   21.2995   -0.9201 N.am      2 UNK        -0.4145 
     35 C          26.7437   21.7978    0.2199 C.2       1 UNK         0.5006 
     36 O          25.7981   22.5884    0.2477 O.2       1 UNK        -0.5103 
     37 C          29.1649   29.1166    1.7878 C.2       5 UNK         0.5055 
     38 O          29.6899   30.0338    2.4235 O.2       5 UNK        -0.5220 
     39 N          28.7341   29.2535    0.5215 N.am      6 UNK        -0.4450 
     40 CA         28.7361   30.4803   -0.2823 C.3       6 UNK         0.0367 
     41 CB         30.1785   30.8389   -0.7062 C.3       6 UNK        -0.1929 
     42 C          27.9726   31.6200    0.4246 C.2       6 UNK         0.5070 
     43 O          26.8234   31.4184    0.8186 O.2       6 UNK        -0.5237 
     44 N          28.6177   32.7783    0.6059 N.am      7 UNK        -0.4739 
     45 CA         28.1010   33.9257    1.3566 C.3       7 UNK         0.0276 
     46 CB         28.4755   35.2171    0.6041 C.3       7 UNK        -0.1927 
     47 C          28.6256   33.9097    2.8068 C.2       7 UNK         0.5013 
     48 O          29.0897   34.9403    3.2974 O.2       7 UNK        -0.5193 
     49 N          28.5665   32.7324    3.4503 N.am      8 UNK        -0.4253 
     50 CA         29.1229   32.4018    4.7702 C.3       8 UNK         0.0242 
     51 CB         28.4072   33.1827    5.8935 C.3       8 UNK        -0.2000 
     52 C          30.6550   32.5657    4.7894 C.2       8 UNK         0.4948 
     53 O          31.1967   33.3151    5.6056 O.2       8 UNK        -0.5275 
     54 N          31.3138   31.8867    3.8426 N.am      9 UNK        -0.4246 
     55 CA         32.7582   31.9285    3.6200 C.3       9 UNK         0.0261 
     56 CB         33.0594   31.2991    2.2510 C.3       9 UNK        -0.1959 
     57 C          33.5616   31.2355    4.7349 C.2       9 UNK         0.5033 
     58 O          33.0501   30.3382    5.4110 O.2       9 UNK        -0.5390 
     59 N          34.8329   31.6427    4.8674 N.am      10 UNK        -0.4215 
     60 CA         35.7925   31.1859    5.8834 C.3       10 UNK         0.0240 
     61 CB         37.0865   32.0070    5.7536 C.3       10 UNK        -0.1982 
     62 C          36.1107   29.6780    5.8630 C.2       10 UNK         0.4970 
     63 O          36.5900   29.1554    6.8702 O.2       10 UNK        -0.4916 
     64 N          35.8269   29.0068    4.7406 N.am      11 UNK        -0.4279 
     65 CA         35.8193   27.5432    4.6034 C.3       11 UNK         0.1003 
     66 C          34.7452   26.8128    5.4644 C.2       11 UNK         0.5709 
     67 N          33.7338   27.4939    5.9938 N.am      11 UNK        -0.7358 
     68 O          34.8538   25.6087    5.6817 O.2       11 UNK        -0.4999 
     69 C69        35.7813   27.1089    3.1107 C.3       12 UNK        -0.0954 
     70 S70        34.5117   27.9739    2.1193 S.3       12 UNK        -0.2268 
     71 C71        33.6912   26.6081    1.2299 C.3       12 UNK         0.0203 
     72 H72        23.9956   22.2184    4.2479 H         1 UNK         0.0888 
     73 H73        24.8727   20.7074    4.4971 H         1 UNK         0.0888 
     74 H74        25.3111   22.1441    5.4233 H         1 UNK         0.0888 
     75 H75        26.2671   20.2941    2.8434 H         1 UNK         0.3017 
     76 H76        27.8604   20.3815    1.3668 H         1 UNK         0.0873 
     77 H77        28.3941   23.3787    1.7481 H         1 UNK         0.0745 
     78 H78        28.9748   22.1723    2.8592 H         1 UNK         0.0745 
     79 H79        32.3964   21.7319    1.4771 H         1 UNK         0.0705 
     80 H80        31.2931   21.4690    2.8010 H         1 UNK         0.0705 
     81 H81        33.0562   24.0208    0.7870 H         1 UNK         0.1334 
     82 H82        32.2647   27.2206    3.5389 H         1 UNK         0.1417 
     83 H83        30.4460   23.3966    4.1302 H         1 UNK         0.1562 
     84 H84        31.0284   26.7906    5.5741 H         1 UNK         0.0748 
     85 H85        30.6237   25.1462    5.9899 H         1 UNK         0.0748 
     86 H86        29.6979   28.4041    4.4299 H         1 UNK         0.0940 
     87 H87        27.9665   28.3825    4.2569 H         1 UNK         0.0940 
     88 H88        29.9640   27.2411    2.2462 H         1 UNK         0.0703 
     89 H89        28.3983   26.0683    1.3290 H         1 UNK         0.3081 
     90 H90        25.5481   25.3063    1.4177 H         1 UNK         0.0719 
     91 H91        25.0195   27.6410   -0.4960 H         1 UNK         0.0809 
     92 H92        24.1789   26.0906   -0.5332 H         1 UNK         0.0809 
     93 H93        24.0099   27.1498    0.8557 H         1 UNK         0.0809 
     94 H94        26.7404   24.4370   -0.2157 H         1 UNK         0.2990 
     95 H95        28.3348   25.4956   -3.0725 H         1 UNK         0.0690 
     96 H96        30.5801   24.7556   -2.2730 H         1 UNK         0.0788 
     97 H97        30.0903   25.0008   -0.5978 H         1 UNK         0.0788 
     98 H98        30.2246   26.3717   -1.6903 H         1 UNK         0.0788 
     99 H99        28.6748   23.1613   -1.3688 H         1 UNK         0.2993 
    100 H100       25.7122   21.5290   -2.3113 H         1 UNK         0.0949 
    101 H101       28.5450   20.8576   -3.2898 H         1 UNK         0.0767 
    102 H102       27.2087   19.7168   -3.1270 H         1 UNK         0.0767 
    103 H103       27.1223   21.0088   -4.3121 H         1 UNK         0.0767 
    104 H104       28.0334   20.6694   -0.8701 H         1 UNK         0.3013 
    105 H105       28.2953   28.4565    0.0672 H         1 UNK         0.3121 
    106 H106       28.1710   30.2532   -1.1876 H         1 UNK         0.0774 
    107 H107       30.1934   31.6903   -1.3877 H         1 UNK         0.0815 
    108 H108       30.8096   31.0796    0.1487 H         1 UNK         0.0815 
    109 H109       30.6464   30.0064   -1.2320 H         1 UNK         0.0815 
    110 H110       29.5739   32.8464    0.2875 H         1 UNK         0.2987 
    111 H111       27.0111   33.8796    1.4128 H         1 UNK         0.0949 
    112 H112       28.0831   35.2108   -0.4129 H         1 UNK         0.0806 
    113 H113       28.0617   36.0950    1.1021 H         1 UNK         0.0806 
    114 H114       29.5562   35.3528    0.5463 H         1 UNK         0.0806 
    115 H115       28.2126   31.9427    2.9252 H         1 UNK         0.3010 
    116 H116       28.9256   31.3406    4.9313 H         1 UNK         0.0829 
    117 H117       27.3298   33.0207    5.8645 H         1 UNK         0.0813 
    118 H118       28.7579   32.8586    6.8741 H         1 UNK         0.0813 
    119 H119       28.5874   34.2558    5.8252 H         1 UNK         0.0813 
    120 H120       30.7785   31.2498    3.2541 H         1 UNK         0.3038 
    121 H121       33.0592   32.9780    3.5916 H         1 UNK         0.0769 
    122 H122       34.1321   31.2280    2.0665 H         1 UNK         0.0811 
    123 H123       32.6370   31.8982    1.4450 H         1 UNK         0.0811 
    124 H124       32.6440   30.2936    2.1728 H         1 UNK         0.0811 
    125 H125       35.1638   32.3685    4.2474 H         1 UNK         0.3204 
    126 H126       35.3506   31.3989    6.8589 H         1 UNK         0.0748 
    127 H127       37.8117   31.7191    6.5163 H         1 UNK         0.0771 
    128 H128       37.5609   31.8615    4.7822 H         1 UNK         0.0771 
    129 H129       36.8963   33.0731    5.8800 H         1 UNK         0.0771 
    130 H130       35.4268   29.5123    3.9649 H         1 UNK         0.2980 
    131 H131       36.7751   27.1968    5.0010 H         1 UNK         0.0545 
    132 H132       33.0750   27.0089    6.5789 H         1 UNK         0.3459 
    133 H133       33.6139   28.4853    5.8096 H         1 UNK         0.3459 
    134 H134       35.6537   26.0285    3.0203 H         1 UNK         0.0616 
    135 H135       36.7465   27.3266    2.6515 H         1 UNK         0.0616 
    136 H136       33.0814   27.0398    0.4355 H         1 UNK         0.0634 
    137 H137       34.4594   26.0090    0.7383 H         1 UNK         0.0634 
@<TRIPOS>BOND
     1    1    2 1    
     2    1   72 1    
     3    1   73 1    
     4    1   74 1    
     5    2    3 2    
     6    2    4 am   BACKBONE|DICT|INTERRES
     7    4    5 1    
     8    4   75 1    
     9    5    6 1    
    10    5   35 1    
    11    5   76 1    
    12    6    7 1    
    13    6   77 1    
    14    6   78 1    
    15    7    8 1    
    16    8    9 1    
    17    8   79 1    
    18    8   80 1    
    19    9   10 ar   
    20    9   14 ar   
    21   10   11 ar   
    22   10   81 1    
    23   11   12 ar   
    24   11   71 1    
    25   12   13 ar   
    26   12   82 1    
    27   13   14 ar   
    28   13   15 1    
    29   14   83 1    
    30   15   16 1    
    31   15   84 1    
    32   15   85 1    
    33   16   17 1    
    34   17   18 1    
    35   17   86 1    
    36   17   87 1    
    37   18   19 1    
    38   18   37 1    
    39   18   88 1    
    40   19   20 am   BACKBONE|DICT|INTERRES
    41   19   89 1    
    42   20   21 2    
    43   20   22 1    
    44   22   23 1    
    45   22   24 1    
    46   22   90 1    
    47   23   91 1    
    48   23   92 1    
    49   23   93 1    
    50   24   25 am   BACKBONE|DICT|INTERRES
    51   24   94 1    
    52   25   26 2    
    53   25   27 1    
    54   27   28 1    
    55   27   29 1    
    56   27   95 1    
    57   28   96 1    
    58   28   97 1    
    59   28   98 1    
    60   29   30 am   BACKBONE|DICT|INTERRES
    61   29   99 1    
    62   30   31 2    
    63   30   32 1    
    64   32   33 1    
    65   32   34 1    
    66   32  100 1    
    67   33  101 1    
    68   33  102 1    
    69   33  103 1    
    70   34   35 am   BACKBONE|DICT|INTERRES
    71   34  104 1    
    72   35   36 2    
    73   37   38 2    
    74   37   39 am   BACKBONE|DICT|INTERRES
    75   39   40 1    
    76   39  105 1    
    77   40   41 1    
    78   40   42 1    
    79   40  106 1    
    80   41  107 1    
    81   41  108 1    
    82   41  109 1    
    83   42   43 2    
    84   42   44 am   BACKBONE|DICT|INTERRES
    85   44   45 1    
    86   44  110 1    
    87   45   46 1    
    88   45   47 1    
    89   45  111 1    
    90   46  112 1    
    91   46  113 1    
    92   46  114 1    
    93   47   48 2    
    94   47   49 am   BACKBONE|DICT|INTERRES
    95   49   50 1    
    96   49  115 1    
    97   50   51 1    
    98   50   52 1    
    99   50  116 1    
   100   51  117 1    
   101   51  118 1    
   102   51  119 1    
   103   52   53 2    
   104   52   54 am   BACKBONE|DICT|INTERRES
   105   54   55 1    
   106   54  120 1    
   107   55   56 1    
   108   55   57 1    
   109   55  121 1    
   110   56  122 1    
   111   56  123 1    
   112   56  124 1    
   113   57   58 2    
   114   57   59 am   BACKBONE|DICT|INTERRES
   115   59   60 1    
   116   59  125 1    
   117   60   61 1    
   118   60   62 1    
   119   60  126 1    
   120   61  127 1    
   121   61  128 1    
   122   61  129 1    
   123   62   63 2    
   124   62   64 am   BACKBONE|DICT|INTERRES
   125   64   65 1    
   126   64  130 1    
   127   65   66 1    
   128   65   69 1    
   129   65  131 1    
   130   66   67 am   BACKBONE|DICT|INTERRES
   131   66   68 2    
   132   67  132 1    
   133   67  133 1    
   134   69   70 1    
   135   69  134 1    
   136   69  135 1    
   137   70   71 1    
   138   71  136 1    
   139   71  137 1    
@<TRIPOS>SUBSTRUCTURE
     1 UNK         1 GROUP             0       ****    0 ROOT    
