@<TRIPOS>MOLECULE
3R136
137   139    1
SMALL
USER_CHARGES


@<TRIPOS>ATOM
      1 CA         26.9957   22.2881    3.9487 C.3       0 UNK        -0.1979 
      2 C          27.3083   21.7236    2.5709 C.2       0 UNK         0.4864 
      3 O          26.7911   20.6655    2.2081 O.2       0 UNK        -0.5359 
      4 N          28.1537   22.4219    1.8023 N.am      1 UNK        -0.4318 
      5 CA         28.6337   22.0498    0.4648 C.3       1 UNK         0.0824 
      6 C6         29.9029   22.8518    0.0686 C.3       12 UNK        -0.0944 
      7 S7         31.2794   22.6647    1.2560 S.3       12 UNK        -0.2672 
      8 C8         31.7198   24.3969    1.6131 C.3       12 UNK         0.0333 
      9 C9         30.9847   24.9428    2.8307 C.ar      12 UNK        -0.0807 
     10 C10        31.6616   25.1010    4.0440 C.ar      12 UNK        -0.0894 
     11 C11        31.0065   25.6313    5.1590 C.ar      12 UNK        -0.0804 
     12 C12        29.6655   26.0103    5.0520 C.ar      12 UNK        -0.0824 
     13 C13        28.9718   25.8502    3.8489 C.ar      12 UNK        -0.0762 
     14 C14        29.6384   25.3079    2.7437 C.ar      12 UNK        -0.0782 
     15 C15        27.5016   26.2466    3.7722 C.3       12 UNK         0.0230 
     16 S16        27.3088   28.0533    3.6139 S.3       12 UNK        -0.2608 
     17 C17        26.6964   28.2539    1.9056 C.3       12 UNK        -0.0989 
     18 CA         27.7266   27.8288    0.8353 C.3       5 UNK         0.0716 
     19 N          27.0978   27.5457   -0.4510 N.am      5 UNK        -0.4135 
     20 C          27.6641   26.8186   -1.4224 C.2       4 UNK         0.5031 
     21 O          28.8310   26.4222   -1.3927 O.2       4 UNK        -0.5229 
     22 CA         26.7226   26.3755   -2.5541 C.3       4 UNK         0.0329 
     23 CB         27.4708   25.7381   -3.7395 C.3       4 UNK        -0.2001 
     24 N          25.7673   25.4064   -2.0109 N.am      4 UNK        -0.4303 
     25 C          24.6148   25.7253   -1.4038 C.2       3 UNK         0.5044 
     26 O          24.2072   26.8855   -1.3221 O.2       3 UNK        -0.5152 
     27 CA         23.8051   24.6117   -0.7053 C.3       3 UNK         0.0319 
     28 CB         22.3479   24.5628   -1.2109 C.3       3 UNK        -0.2001 
     29 N          24.4270   23.2793   -0.7153 N.am      3 UNK        -0.4354 
     30 C          24.6111   22.4553   -1.7579 C.2       2 UNK         0.4964 
     31 O          24.2401   22.7044   -2.9058 O.2       2 UNK        -0.5047 
     32 CA         25.3764   21.1482   -1.4582 C.3       2 UNK         0.0288 
     33 CB         25.8723   20.4447   -2.7399 C.3       2 UNK        -0.2113 
     34 N          26.4927   21.3163   -0.5132 N.am      2 UNK        -0.4145 
     35 C          27.5298   22.1614   -0.6158 C.2       1 UNK         0.5006 
     36 O          27.6236   23.0082   -1.5061 O.2       1 UNK        -0.5103 
     37 C          28.9199   28.7949    0.7245 C.2       5 UNK         0.5055 
     38 O          28.8279   29.8137    0.0363 O.2       5 UNK        -0.5220 
     39 N          30.0015   28.4499    1.4340 N.am      6 UNK        -0.4450 
     40 CA         31.2543   29.1994    1.4976 C.3       6 UNK         0.0367 
     41 CB         32.4204   28.2292    1.2375 C.3       6 UNK        -0.1929 
     42 C          31.4354   29.9200    2.8435 C.2       6 UNK         0.5070 
     43 O          32.4883   30.5209    3.0538 O.2       6 UNK        -0.5237 
     44 N          30.4390   29.8712    3.7426 N.am      7 UNK        -0.4739 
     45 CA         30.4896   30.4771    5.0826 C.3       7 UNK         0.0276 
     46 CB         29.2083   30.1352    5.8562 C.3       7 UNK        -0.1927 
     47 C          30.7338   31.9979    5.0810 C.2       7 UNK         0.5013 
     48 O          31.3780   32.5071    5.9983 O.2       7 UNK        -0.5193 
     49 N          30.2871   32.6827    4.0179 N.am      8 UNK        -0.4253 
     50 CA         30.5696   34.0959    3.7418 C.3       8 UNK         0.0242 
     51 CB         29.7213   34.5522    2.5437 C.3       8 UNK        -0.2000 
     52 C          32.0618   34.3974    3.4891 C.2       8 UNK         0.4948 
     53 O          32.4825   35.5378    3.6846 O.2       8 UNK        -0.5275 
     54 N          32.8331   33.3780    3.0871 N.am      9 UNK        -0.4246 
     55 CA         34.2859   33.4086    2.9173 C.3       9 UNK         0.0261 
     56 CB         34.6272   32.8981    1.5047 C.3       9 UNK        -0.1959 
     57 C          34.9779   32.5723    4.0125 C.2       9 UNK         0.5033 
     58 O          36.0640   32.0394    3.7751 O.2       9 UNK        -0.5390 
     59 N          34.3293   32.4415    5.1823 N.am      10 UNK        -0.4215 
     60 CA         34.7685   31.6964    6.3693 C.3       10 UNK         0.0240 
     61 CB         35.9784   32.3939    7.0277 C.3       10 UNK        -0.1982 
     62 C          35.0124   30.1957    6.1075 C.2       10 UNK         0.4970 
     63 O          35.8885   29.6036    6.7403 O.2       10 UNK        -0.4916 
     64 N          34.2394   29.6166    5.1780 N.am      11 UNK        -0.4279 
     65 CA         34.3325   28.2259    4.7043 C.3       11 UNK         0.1003 
     66 C          35.5905   27.9364    3.8303 C.2       11 UNK         0.5709 
     67 N          36.3292   28.9403    3.3680 N.am      11 UNK        -0.7358 
     68 O          35.8857   26.7819    3.5314 O.2       11 UNK        -0.4999 
     69 C69        34.1037   27.1666    5.8217 C.3       12 UNK        -0.0954 
     70 S70        32.5147   27.3907    6.6956 S.3       12 UNK        -0.2268 
     71 C71        31.7284   25.7624    6.4924 C.3       12 UNK         0.0203 
     72 H72        27.1055   21.5117    4.7053 H         1 UNK         0.0888 
     73 H73        25.9697   22.6535    3.9814 H         1 UNK         0.0888 
     74 H74        27.6612   23.1093    4.2137 H         1 UNK         0.0888 
     75 H75        28.5787   23.2508    2.1881 H         1 UNK         0.3017 
     76 H76        28.9191   20.9961    0.5025 H         1 UNK         0.0873 
     77 H77        30.2703   22.5135   -0.9023 H         1 UNK         0.0745 
     78 H78        29.6633   23.9084   -0.0619 H         1 UNK         0.0745 
     79 H79        31.5269   25.0277    0.7438 H         1 UNK         0.0705 
     80 H80        32.7975   24.4453    1.7769 H         1 UNK         0.0705 
     81 H81        32.6986   24.8053    4.1217 H         1 UNK         0.1334 
     82 H82        29.1556   26.4222    5.9125 H         1 UNK         0.1417 
     83 H83        29.1195   25.1564    1.8103 H         1 UNK         0.1562 
     84 H84        26.9945   25.9233    4.6827 H         1 UNK         0.0748 
     85 H85        26.9977   25.7306    2.9537 H         1 UNK         0.0748 
     86 H86        26.3881   29.2910    1.7579 H         1 UNK         0.0940 
     87 H87        25.7859   27.6587    1.8142 H         1 UNK         0.0940 
     88 H88        28.1217   26.8682    1.1424 H         1 UNK         0.0703 
     89 H89        26.1312   27.8239   -0.5634 H         1 UNK         0.3081 
     90 H90        26.1958   27.2572   -2.9254 H         1 UNK         0.0719 
     91 H91        28.0242   24.8472   -3.4403 H         1 UNK         0.0809 
     92 H92        26.7814   25.4509   -4.5335 H         1 UNK         0.0809 
     93 H93        28.1884   26.4386   -4.1685 H         1 UNK         0.0809 
     94 H94        26.0852   24.4439   -1.9818 H         1 UNK         0.2990 
     95 H95        23.7683   24.9001    0.3463 H         1 UNK         0.0690 
     96 H96        21.7705   23.8010   -0.6871 H         1 UNK         0.0788 
     97 H97        22.2922   24.3528   -2.2792 H         1 UNK         0.0788 
     98 H98        21.8462   25.5172   -1.0461 H         1 UNK         0.0788 
     99 H99        24.7919   22.9731    0.1761 H         1 UNK         0.2993 
    100 H100       24.6584   20.4847   -0.9735 H         1 UNK         0.0949 
    101 H101       26.5676   21.0713   -3.3001 H         1 UNK         0.0767 
    102 H102       26.3782   19.5076   -2.5074 H         1 UNK         0.0767 
    103 H103       25.0409   20.2051   -3.4042 H         1 UNK         0.0767 
    104 H104       26.4673   20.7348    0.3222 H         1 UNK         0.3013 
    105 H105       29.9662   27.6094    1.9948 H         1 UNK         0.3121 
    106 H106       31.2751   29.9691    0.7233 H         1 UNK         0.0774 
    107 H107       33.3800   28.7480    1.2607 H         1 UNK         0.0815 
    108 H108       32.4598   27.4337    1.9816 H         1 UNK         0.0815 
    109 H109       32.3323   27.7626    0.2563 H         1 UNK         0.0815 
    110 H110       29.5973   29.3636    3.5078 H         1 UNK         0.2987 
    111 H111       31.3296   30.0227    5.6115 H         1 UNK         0.0949 
    112 H112       29.0947   29.0576    5.9745 H         1 UNK         0.0806 
    113 H113       29.2292   30.5667    6.8580 H         1 UNK         0.0806 
    114 H114       28.3181   30.5162    5.3544 H         1 UNK         0.0806 
    115 H115       29.7701   32.1752    3.3144 H         1 UNK         0.3010 
    116 H116       30.2665   34.6727    4.6182 H         1 UNK         0.0829 
    117 H117       29.9665   33.9945    1.6389 H         1 UNK         0.0813 
    118 H118       29.8856   35.6093    2.3292 H         1 UNK         0.0813 
    119 H119       28.6562   34.4261    2.7394 H         1 UNK         0.0813 
    120 H120       32.4185   32.4549    2.9913 H         1 UNK         0.3038 
    121 H121       34.6607   34.4295    3.0122 H         1 UNK         0.0769 
    122 H122       34.1214   33.4854    0.7383 H         1 UNK         0.0811 
    123 H123       34.3371   31.8545    1.3741 H         1 UNK         0.0811 
    124 H124       35.6980   32.9670    1.3089 H         1 UNK         0.0811 
    125 H125       33.4151   32.8711    5.2670 H         1 UNK         0.3204 
    126 H126       33.9389   31.7416    7.0764 H         1 UNK         0.0748 
    127 H127       36.8679   32.3378    6.3991 H         1 UNK         0.0771 
    128 H128       35.7716   33.4461    7.2230 H         1 UNK         0.0771 
    129 H129       36.2261   31.9322    7.9843 H         1 UNK         0.0771 
    130 H130       33.5952   30.1933    4.6475 H         1 UNK         0.2980 
    131 H131       33.5021   28.1141    4.0099 H         1 UNK         0.0545 
    132 H132       37.1307   28.7339    2.7941 H         1 UNK         0.3459 
    133 H133       36.1095   29.9023    3.5966 H         1 UNK         0.3459 
    134 H134       34.1345   26.1622    5.3994 H         1 UNK         0.0616 
    135 H135       34.9073   27.1971    6.5580 H         1 UNK         0.0616 
    136 H136       31.0157   25.6226    7.3065 H         1 UNK         0.0634 
    137 H137       32.4708   24.9714    6.6084 H         1 UNK         0.0634 
@<TRIPOS>BOND
     1    1    2 1    
     2    1   72 1    
     3    1   73 1    
     4    1   74 1    
     5    2    3 2    
     6    2    4 am   BACKBONE|DICT|INTERRES
     7    4    5 1    
     8    4   75 1    
     9    5    6 1    
    10    5   35 1    
    11    5   76 1    
    12    6    7 1    
    13    6   77 1    
    14    6   78 1    
    15    7    8 1    
    16    8    9 1    
    17    8   79 1    
    18    8   80 1    
    19    9   10 ar   
    20    9   14 ar   
    21   10   11 ar   
    22   10   81 1    
    23   11   12 ar   
    24   11   71 1    
    25   12   13 ar   
    26   12   82 1    
    27   13   14 ar   
    28   13   15 1    
    29   14   83 1    
    30   15   16 1    
    31   15   84 1    
    32   15   85 1    
    33   16   17 1    
    34   17   18 1    
    35   17   86 1    
    36   17   87 1    
    37   18   19 1    
    38   18   37 1    
    39   18   88 1    
    40   19   20 am   BACKBONE|DICT|INTERRES
    41   19   89 1    
    42   20   21 2    
    43   20   22 1    
    44   22   23 1    
    45   22   24 1    
    46   22   90 1    
    47   23   91 1    
    48   23   92 1    
    49   23   93 1    
    50   24   25 am   BACKBONE|DICT|INTERRES
    51   24   94 1    
    52   25   26 2    
    53   25   27 1    
    54   27   28 1    
    55   27   29 1    
    56   27   95 1    
    57   28   96 1    
    58   28   97 1    
    59   28   98 1    
    60   29   30 am   BACKBONE|DICT|INTERRES
    61   29   99 1    
    62   30   31 2    
    63   30   32 1    
    64   32   33 1    
    65   32   34 1    
    66   32  100 1    
    67   33  101 1    
    68   33  102 1    
    69   33  103 1    
    70   34   35 am   BACKBONE|DICT|INTERRES
    71   34  104 1    
    72   35   36 2    
    73   37   38 2    
    74   37   39 am   BACKBONE|DICT|INTERRES
    75   39   40 1    
    76   39  105 1    
    77   40   41 1    
    78   40   42 1    
    79   40  106 1    
    80   41  107 1    
    81   41  108 1    
    82   41  109 1    
    83   42   43 2    
    84   42   44 am   BACKBONE|DICT|INTERRES
    85   44   45 1    
    86   44  110 1    
    87   45   46 1    
    88   45   47 1    
    89   45  111 1    
    90   46  112 1    
    91   46  113 1    
    92   46  114 1    
    93   47   48 2    
    94   47   49 am   BACKBONE|DICT|INTERRES
    95   49   50 1    
    96   49  115 1    
    97   50   51 1    
    98   50   52 1    
    99   50  116 1    
   100   51  117 1    
   101   51  118 1    
   102   51  119 1    
   103   52   53 2    
   104   52   54 am   BACKBONE|DICT|INTERRES
   105   54   55 1    
   106   54  120 1    
   107   55   56 1    
   108   55   57 1    
   109   55  121 1    
   110   56  122 1    
   111   56  123 1    
   112   56  124 1    
   113   57   58 2    
   114   57   59 am   BACKBONE|DICT|INTERRES
   115   59   60 1    
   116   59  125 1    
   117   60   61 1    
   118   60   62 1    
   119   60  126 1    
   120   61  127 1    
   121   61  128 1    
   122   61  129 1    
   123   62   63 2    
   124   62   64 am   BACKBONE|DICT|INTERRES
   125   64   65 1    
   126   64  130 1    
   127   65   66 1    
   128   65   69 1    
   129   65  131 1    
   130   66   67 am   BACKBONE|DICT|INTERRES
   131   66   68 2    
   132   67  132 1    
   133   67  133 1    
   134   69   70 1    
   135   69  134 1    
   136   69  135 1    
   137   70   71 1    
   138   71  136 1    
   139   71  137 1    
@<TRIPOS>SUBSTRUCTURE
     1 UNK         1 GROUP             0       ****    0 ROOT    
