@<TRIPOS>MOLECULE
3R136
137   139    1
SMALL
USER_CHARGES


@<TRIPOS>ATOM
      1 CA         28.6316   16.9701   -0.9695 C.3       0 UNK        -0.1979 
      2 C          28.8684   18.3249   -1.6209 C.2       0 UNK         0.4864 
      3 O          28.5307   18.5072   -2.7922 O.2       0 UNK        -0.5359 
      4 N          29.4541   19.2696   -0.8744 N.am      1 UNK        -0.4318 
      5 CA         29.6975   20.6514   -1.3010 C.3       1 UNK         0.0824 
      6 C6         30.9395   21.2489   -0.5891 C.3       12 UNK        -0.0944 
      7 S7         30.8119   21.3338    1.2305 S.3       12 UNK        -0.2672 
      8 C8         30.7255   23.1342    1.4538 C.3       12 UNK         0.0333 
      9 C9         30.6076   23.5146    2.9188 C.ar      12 UNK        -0.0807 
     10 C10        31.7191   23.9992    3.6157 C.ar      12 UNK        -0.0894 
     11 C11        31.5908   24.4319    4.9389 C.ar      12 UNK        -0.0804 
     12 C12        30.3432   24.3667    5.5653 C.ar      12 UNK        -0.0824 
     13 C13        29.2265   23.8805    4.8785 C.ar      12 UNK        -0.0762 
     14 C14        29.3690   23.4354    3.5611 C.ar      12 UNK        -0.0782 
     15 C15        27.8575   23.8881    5.5454 C.3       12 UNK         0.0230 
     16 S16        26.6917   25.0339    4.7317 S.3       12 UNK        -0.2608 
     17 C17        27.6666   26.5751    4.6027 C.3       12 UNK        -0.0989 
     18 CA         28.1796   26.7995    3.1526 C.3       5 UNK         0.0716 
     19 N          27.1154   26.9834    2.1630 N.am      5 UNK        -0.4135 
     20 C          26.1925   27.9561    2.1134 C.2       4 UNK         0.5031 
     21 O          26.1312   28.8924    2.9126 O.2       4 UNK        -0.5229 
     22 CA         25.1469   27.8688    0.9845 C.3       4 UNK         0.0329 
     23 CB         25.5681   28.7515   -0.2015 C.3       4 UNK        -0.2001 
     24 N          24.9249   26.4995    0.5116 N.am      4 UNK        -0.4303 
     25 C          24.3730   25.5175    1.2398 C.2       3 UNK         0.5044 
     26 O          23.8499   25.6981    2.3397 O.2       3 UNK        -0.5152 
     27 CA         24.4176   24.0907    0.6587 C.3       3 UNK         0.0319 
     28 CB         23.0109   23.6393    0.2313 C.3       3 UNK        -0.2001 
     29 N          25.3378   23.9104   -0.4715 N.am      3 UNK        -0.4354 
     30 C          26.6743   24.0054   -0.4198 C.2       2 UNK         0.4964 
     31 O          27.3062   24.3438    0.5835 O.2       2 UNK        -0.5047 
     32 CA         27.4180   23.7467   -1.7430 C.3       2 UNK         0.0288 
     33 CB         27.9639   25.0693   -2.3078 C.3       2 UNK        -0.2113 
     34 N          28.5174   22.7808   -1.6377 N.am      2 UNK        -0.4145 
     35 C          28.4221   21.5226   -1.1789 C.2       1 UNK         0.5006 
     36 O          27.3837   21.0424   -0.7137 O.2       1 UNK        -0.5103 
     37 C          29.2631   27.8887    3.0690 C.2       5 UNK         0.5055 
     38 O          30.3890   27.5880    2.6735 O.2       5 UNK        -0.5220 
     39 N          28.9119   29.1273    3.4309 N.am      6 UNK        -0.4450 
     40 CA         29.7952   30.2881    3.3654 C.3       6 UNK         0.0367 
     41 CB         29.2102   31.4206    4.2226 C.3       6 UNK        -0.1929 
     42 C          29.9834   30.7527    1.9135 C.2       6 UNK         0.5070 
     43 O          29.0016   30.8578    1.1751 O.2       6 UNK        -0.5237 
     44 N          31.2315   31.0604    1.5510 N.am      7 UNK        -0.4739 
     45 CA         31.6015   31.6827    0.2796 C.3       7 UNK         0.0276 
     46 CB         32.9027   31.0495   -0.2384 C.3       7 UNK        -0.1927 
     47 C          31.7759   33.1978    0.4568 C.2       7 UNK         0.5013 
     48 O          31.3554   33.9626   -0.4117 O.2       7 UNK        -0.5193 
     49 N          32.3739   33.6013    1.5847 N.am      8 UNK        -0.4253 
     50 CA         32.6097   34.9884    1.9768 C.3       8 UNK         0.0242 
     51 CB         33.8279   35.5603    1.2222 C.3       8 UNK        -0.2000 
     52 C          32.7880   34.9990    3.4974 C.2       8 UNK         0.4948 
     53 O          33.9090   35.1568    3.9854 O.2       8 UNK        -0.5275 
     54 N          31.6907   34.7154    4.2158 N.am      9 UNK        -0.4246 
     55 CA         31.5848   34.4358    5.6592 C.3       9 UNK         0.0261 
     56 CB         32.0714   35.6176    6.5218 C.3       9 UNK        -0.1959 
     57 C          32.2631   33.1139    6.0674 C.2       9 UNK         0.5033 
     58 O          31.6213   32.2718    6.6959 O.2       9 UNK        -0.5390 
     59 N          33.5237   32.9371    5.6591 N.am      10 UNK        -0.4215 
     60 CA         34.2408   31.6651    5.6487 C.3       10 UNK         0.0240 
     61 CB         35.7490   31.9530    5.5676 C.3       10 UNK        -0.1982 
     62 C          33.7920   30.8069    4.4537 C.2       10 UNK         0.4970 
     63 O          33.2389   31.3369    3.4839 O.2       10 UNK        -0.4916 
     64 N          34.0669   29.5008    4.5348 N.am      11 UNK        -0.4279 
     65 CA         33.7235   28.4955    3.5130 C.3       11 UNK         0.1003 
     66 C          34.5134   28.6085    2.1742 C.2       11 UNK         0.5709 
     67 N          35.5455   29.4379    2.0739 N.am      11 UNK        -0.7358 
     68 O          34.1820   27.9306    1.2053 O.2       11 UNK        -0.4999 
     69 C69        33.8070   27.0498    4.0739 C.3       12 UNK        -0.0954 
     70 S70        32.8581   26.8022    5.6126 S.3       12 UNK        -0.2268 
     71 C71        32.7891   24.9843    5.6966 C.3       12 UNK         0.0203 
     72 H72        29.1451   16.1890   -1.5296 H         1 UNK         0.0888 
     73 H73        28.9931   16.9434    0.0585 H         1 UNK         0.0888 
     74 H74        27.5665   16.7400   -0.9601 H         1 UNK         0.0888 
     75 H75        29.6798   19.0758    0.0911 H         1 UNK         0.3017 
     76 H76        29.9342   20.6269   -2.3672 H         1 UNK         0.0873 
     77 H77        31.8106   20.6339   -0.8215 H         1 UNK         0.0745 
     78 H78        31.1801   22.2334   -0.9935 H         1 UNK         0.0745 
     79 H79        31.6106   23.5963    1.0135 H         1 UNK         0.0705 
     80 H80        29.8685   23.5289    0.9066 H         1 UNK         0.0705 
     81 H81        32.6786   24.0607    3.1210 H         1 UNK         0.1334 
     82 H82        30.2396   24.7199    6.5823 H         1 UNK         0.1417 
     83 H83        28.5039   23.0797    3.0164 H         1 UNK         0.1562 
     84 H84        27.9404   24.1624    6.5983 H         1 UNK         0.0748 
     85 H85        27.4396   22.8808    5.5230 H         1 UNK         0.0748 
     86 H86        28.4971   26.5376    5.3096 H         1 UNK         0.0940 
     87 H87        27.0413   27.4062    4.9314 H         1 UNK         0.0940 
     88 H88        28.6785   25.8853    2.8361 H         1 UNK         0.0703 
     89 H89        27.0686   26.2464    1.4684 H         1 UNK         0.3081 
     90 H90        24.2025   28.2488    1.3800 H         1 UNK         0.0719 
     91 H91        26.5002   28.4073   -0.6518 H         1 UNK         0.0809 
     92 H92        24.8031   28.7668   -0.9780 H         1 UNK         0.0809 
     93 H93        25.7249   29.7831    0.1178 H         1 UNK         0.0809 
     94 H94        25.2998   26.2619   -0.3945 H         1 UNK         0.2990 
     95 H95        24.7568   23.4345    1.4633 H         1 UNK         0.0690 
     96 H96        23.0080   22.5975   -0.0901 H         1 UNK         0.0788 
     97 H97        22.6236   24.2466   -0.5878 H         1 UNK         0.0788 
     98 H98        22.3048   23.7209    1.0591 H         1 UNK         0.0788 
     99 H99        24.9097   23.6485   -1.3483 H         1 UNK         0.2993 
    100 H100       26.7090   23.3363   -2.4653 H         1 UNK         0.0949 
    101 H101       28.7144   25.5088   -1.6488 H         1 UNK         0.0767 
    102 H102       28.4195   24.9264   -3.2879 H         1 UNK         0.0767 
    103 H103       27.1668   25.8041   -2.4291 H         1 UNK         0.0767 
    104 H104       29.4090   23.0943   -1.9914 H         1 UNK         0.3013 
    105 H105       27.9231   29.3017    3.5872 H         1 UNK         0.3121 
    106 H106       30.7633   30.0090    3.7856 H         1 UNK         0.0774 
    107 H107       28.2184   31.7174    3.8788 H         1 UNK         0.0815 
    108 H108       29.8476   32.3037    4.1839 H         1 UNK         0.0815 
    109 H109       29.1316   31.1257    5.2692 H         1 UNK         0.0815 
    110 H110       31.9724   30.9833    2.2449 H         1 UNK         0.2987 
    111 H111       30.8202   31.5160   -0.4656 H         1 UNK         0.0949 
    112 H112       33.7314   31.1982    0.4552 H         1 UNK         0.0806 
    113 H113       32.7858   29.9766   -0.3928 H         1 UNK         0.0806 
    114 H114       33.1949   31.4853   -1.1948 H         1 UNK         0.0806 
    115 H115       32.6892   32.8988    2.2470 H         1 UNK         0.3010 
    116 H116       31.7317   35.5923    1.7372 H         1 UNK         0.0829 
    117 H117       34.0463   36.5778    1.5490 H         1 UNK         0.0813 
    118 H118       34.7242   34.9619    1.3910 H         1 UNK         0.0813 
    119 H119       33.6495   35.5978    0.1476 H         1 UNK         0.0813 
    120 H120       30.8321   34.5812    3.6992 H         1 UNK         0.3038 
    121 H121       30.5185   34.3122    5.8564 H         1 UNK         0.0769 
    122 H122       33.1417   35.7955    6.4161 H         1 UNK         0.0811 
    123 H123       31.8807   35.4278    7.5788 H         1 UNK         0.0811 
    124 H124       31.5516   36.5390    6.2594 H         1 UNK         0.0811 
    125 H125       33.9234   33.6905    5.1023 H         1 UNK         0.3204 
    126 H126       34.0259   31.1256    6.5737 H         1 UNK         0.0748 
    127 H127       36.3309   31.0308    5.5932 H         1 UNK         0.0771 
    128 H128       36.0101   32.4806    4.6488 H         1 UNK         0.0771 
    129 H129       36.0796   32.5643    6.4077 H         1 UNK         0.0771 
    130 H130       34.5296   29.1442    5.3577 H         1 UNK         0.2980 
    131 H131       32.6832   28.6756    3.2436 H         1 UNK         0.0545 
    132 H132       36.0462   29.4962    1.2018 H         1 UNK         0.3459 
    133 H133       35.8297   30.0004    2.8585 H         1 UNK         0.3459 
    134 H134       34.8452   26.7747    4.2681 H         1 UNK         0.0616 
    135 H135       33.4337   26.3445    3.3300 H         1 UNK         0.0616 
    136 H136       33.7186   24.5577    5.3163 H         1 UNK         0.0634 
    137 H137       32.7260   24.6865    6.7443 H         1 UNK         0.0634 
@<TRIPOS>BOND
     1    1    2 1    
     2    1   72 1    
     3    1   73 1    
     4    1   74 1    
     5    2    3 2    
     6    2    4 am   BACKBONE|DICT|INTERRES
     7    4    5 1    
     8    4   75 1    
     9    5    6 1    
    10    5   35 1    
    11    5   76 1    
    12    6    7 1    
    13    6   77 1    
    14    6   78 1    
    15    7    8 1    
    16    8    9 1    
    17    8   79 1    
    18    8   80 1    
    19    9   10 ar   
    20    9   14 ar   
    21   10   11 ar   
    22   10   81 1    
    23   11   12 ar   
    24   11   71 1    
    25   12   13 ar   
    26   12   82 1    
    27   13   14 ar   
    28   13   15 1    
    29   14   83 1    
    30   15   16 1    
    31   15   84 1    
    32   15   85 1    
    33   16   17 1    
    34   17   18 1    
    35   17   86 1    
    36   17   87 1    
    37   18   19 1    
    38   18   37 1    
    39   18   88 1    
    40   19   20 am   BACKBONE|DICT|INTERRES
    41   19   89 1    
    42   20   21 2    
    43   20   22 1    
    44   22   23 1    
    45   22   24 1    
    46   22   90 1    
    47   23   91 1    
    48   23   92 1    
    49   23   93 1    
    50   24   25 am   BACKBONE|DICT|INTERRES
    51   24   94 1    
    52   25   26 2    
    53   25   27 1    
    54   27   28 1    
    55   27   29 1    
    56   27   95 1    
    57   28   96 1    
    58   28   97 1    
    59   28   98 1    
    60   29   30 am   BACKBONE|DICT|INTERRES
    61   29   99 1    
    62   30   31 2    
    63   30   32 1    
    64   32   33 1    
    65   32   34 1    
    66   32  100 1    
    67   33  101 1    
    68   33  102 1    
    69   33  103 1    
    70   34   35 am   BACKBONE|DICT|INTERRES
    71   34  104 1    
    72   35   36 2    
    73   37   38 2    
    74   37   39 am   BACKBONE|DICT|INTERRES
    75   39   40 1    
    76   39  105 1    
    77   40   41 1    
    78   40   42 1    
    79   40  106 1    
    80   41  107 1    
    81   41  108 1    
    82   41  109 1    
    83   42   43 2    
    84   42   44 am   BACKBONE|DICT|INTERRES
    85   44   45 1    
    86   44  110 1    
    87   45   46 1    
    88   45   47 1    
    89   45  111 1    
    90   46  112 1    
    91   46  113 1    
    92   46  114 1    
    93   47   48 2    
    94   47   49 am   BACKBONE|DICT|INTERRES
    95   49   50 1    
    96   49  115 1    
    97   50   51 1    
    98   50   52 1    
    99   50  116 1    
   100   51  117 1    
   101   51  118 1    
   102   51  119 1    
   103   52   53 2    
   104   52   54 am   BACKBONE|DICT|INTERRES
   105   54   55 1    
   106   54  120 1    
   107   55   56 1    
   108   55   57 1    
   109   55  121 1    
   110   56  122 1    
   111   56  123 1    
   112   56  124 1    
   113   57   58 2    
   114   57   59 am   BACKBONE|DICT|INTERRES
   115   59   60 1    
   116   59  125 1    
   117   60   61 1    
   118   60   62 1    
   119   60  126 1    
   120   61  127 1    
   121   61  128 1    
   122   61  129 1    
   123   62   63 2    
   124   62   64 am   BACKBONE|DICT|INTERRES
   125   64   65 1    
   126   64  130 1    
   127   65   66 1    
   128   65   69 1    
   129   65  131 1    
   130   66   67 am   BACKBONE|DICT|INTERRES
   131   66   68 2    
   132   67  132 1    
   133   67  133 1    
   134   69   70 1    
   135   69  134 1    
   136   69  135 1    
   137   70   71 1    
   138   71  136 1    
   139   71  137 1    
@<TRIPOS>SUBSTRUCTURE
     1 UNK         1 GROUP             0       ****    0 ROOT    
