@<TRIPOS>MOLECULE
3R136
137   139    1
SMALL
USER_CHARGES


@<TRIPOS>ATOM
      1 CA         27.8702   21.7610   -1.3913 C.3       0 UNK        -0.1979 
      2 C          26.9131   21.7394   -0.2031 C.2       0 UNK         0.4864 
      3 O          25.7334   21.4492   -0.3955 O.2       0 UNK        -0.5359 
      4 N          27.3431   22.0376    1.0290 N.am      1 UNK        -0.4318 
      5 CA         28.6754   22.4753    1.4566 C.3       1 UNK         0.0824 
      6 C6         29.4279   21.3560    2.2303 C.3       12 UNK        -0.0944 
      7 S7         30.1087   20.0919    1.1038 S.3       12 UNK        -0.2672 
      8 C8         31.9118   20.3802    1.2100 C.3       12 UNK         0.0333 
      9 C9         32.3105   21.8374    0.9953 C.ar      12 UNK        -0.0807 
     10 C10        33.0978   22.4946    1.9468 C.ar      12 UNK        -0.0894 
     11 C11        33.4397   23.8398    1.7797 C.ar      12 UNK        -0.0804 
     12 C12        32.9699   24.5376    0.6645 C.ar      12 UNK        -0.0824 
     13 C13        32.1926   23.8896   -0.2979 C.ar      12 UNK        -0.0762 
     14 C14        31.8911   22.5330   -0.1431 C.ar      12 UNK        -0.0782 
     15 C15        31.6414   24.6638   -1.4823 C.3       12 UNK         0.0230 
     16 S16        29.8666   24.9472   -1.2434 S.3       12 UNK        -0.2608 
     17 C17        29.4677   26.1127   -2.5891 C.3       12 UNK        -0.0989 
     18 CA         28.9844   27.4933   -2.0727 C.3       5 UNK         0.0716 
     19 N          27.9629   27.3723   -1.0247 N.am      5 UNK        -0.4135 
     20 C          26.6475   27.2738   -1.2595 C.2       4 UNK         0.5031 
     21 O          26.1428   27.3991   -2.3766 O.2       4 UNK        -0.5229 
     22 CA         25.7222   26.9493   -0.0681 C.3       4 UNK         0.0329 
     23 CB         25.3445   25.4588   -0.0902 C.3       4 UNK        -0.2001 
     24 N          26.2847   27.2669    1.2457 N.am      4 UNK        -0.4303 
     25 C          26.5832   28.4974    1.6841 C.2       3 UNK         0.5044 
     26 O          26.3561   29.5235    1.0445 O.2       3 UNK        -0.5152 
     27 CA         27.2872   28.6095    3.0513 C.3       3 UNK         0.0319 
     28 CB         26.2521   28.9481    4.1351 C.3       3 UNK        -0.2001 
     29 N          28.0574   27.4293    3.4754 N.am      3 UNK        -0.4354 
     30 C          28.9904   26.7864    2.7572 C.2       2 UNK         0.4964 
     31 O          29.2623   27.0692    1.5904 O.2       2 UNK        -0.5047 
     32 CA         29.7498   25.6256    3.4198 C.3       2 UNK         0.0288 
     33 CB         29.3754   25.3651    4.8968 C.3       2 UNK        -0.2113 
     34 N          29.6409   24.3980    2.6240 N.am      2 UNK        -0.4145 
     35 C          28.5116   23.7379    2.3232 C.2       1 UNK         0.5006 
     36 O          27.3882   24.0843    2.7044 O.2       1 UNK        -0.5103 
     37 C          30.1488   28.4171   -1.6664 C.2       5 UNK         0.5055 
     38 O          30.6692   29.1268   -2.5287 O.2       5 UNK        -0.5220 
     39 N          30.5268   28.4348   -0.3797 N.am      6 UNK        -0.4450 
     40 CA         31.5137   29.3623    0.1842 C.3       6 UNK         0.0367 
     41 CB         32.0421   28.8037    1.5173 C.3       6 UNK        -0.1929 
     42 C          30.9410   30.7763    0.3918 C.2       6 UNK         0.5070 
     43 O          31.7167   31.7265    0.4960 O.2       6 UNK        -0.5237 
     44 N          29.6044   30.8885    0.4612 N.am      7 UNK        -0.4739 
     45 CA         28.7699   32.0921    0.5985 C.3       7 UNK         0.0276 
     46 CB         28.9703   33.0506   -0.5911 C.3       7 UNK        -0.1927 
     47 C          28.9091   32.8398    1.9361 C.2       7 UNK         0.5013 
     48 O          27.8938   33.2207    2.5198 O.2       7 UNK        -0.5193 
     49 N          30.1432   33.0312    2.4138 N.am      8 UNK        -0.4253 
     50 CA         30.5099   33.7757    3.6222 C.3       8 UNK         0.0242 
     51 CB         31.9886   34.1917    3.5071 C.3       8 UNK        -0.2000 
     52 C          30.2114   33.0145    4.9314 C.2       8 UNK         0.4948 
     53 O          31.0870   32.9096    5.7911 O.2       8 UNK        -0.5275 
     54 N          28.9859   32.4864    5.0581 N.am      9 UNK        -0.4246 
     55 CA         28.3796   31.7773    6.1979 C.3       9 UNK         0.0261 
     56 CB         28.2715   32.7072    7.4223 C.3       9 UNK        -0.1959 
     57 C          29.0226   30.4327    6.5980 C.2       9 UNK         0.5033 
     58 O          28.3215   29.5876    7.1559 O.2       9 UNK        -0.5390 
     59 N          30.3137   30.2400    6.3222 N.am      10 UNK        -0.4215 
     60 CA         31.0927   29.0471    6.6339 C.3       10 UNK         0.0240 
     61 CB         31.5528   29.1020    8.1050 C.3       10 UNK        -0.1982 
     62 C          32.2852   28.9514    5.6740 C.2       10 UNK         0.4970 
     63 O          32.5235   29.8716    4.8882 O.2       10 UNK        -0.4916 
     64 N          33.0222   27.8401    5.7738 N.am      11 UNK        -0.4279 
     65 CA         34.2673   27.5812    5.0319 C.3       11 UNK         0.1003 
     66 C          35.4758   28.4707    5.4511 C.2       11 UNK         0.5709 
     67 N          35.4341   29.1693    6.5799 N.am      11 UNK        -0.7358 
     68 O          36.4704   28.5293    4.7322 O.2       11 UNK        -0.4999 
     69 C69        34.6481   26.0790    5.0935 C.3       12 UNK        -0.0954 
     70 S70        33.4067   25.0229    4.2779 S.3       12 UNK        -0.2268 
     71 C71        34.3314   24.5370    2.7927 C.3       12 UNK         0.0203 
     72 H72        27.4783   21.1465   -2.2012 H         1 UNK         0.0888 
     73 H73        27.9776   22.7768   -1.7681 H         1 UNK         0.0888 
     74 H74        28.8540   21.3714   -1.1407 H         1 UNK         0.0888 
     75 H75        26.6560   22.0948    1.7688 H         1 UNK         0.3017 
     76 H76        29.2639   22.7869    0.5964 H         1 UNK         0.0873 
     77 H77        30.2462   21.7544    2.8327 H         1 UNK         0.0745 
     78 H78        28.7596   20.8649    2.9399 H         1 UNK         0.0745 
     79 H79        32.4117   19.7628    0.4627 H         1 UNK         0.0705 
     80 H80        32.2581   20.0258    2.1822 H         1 UNK         0.0705 
     81 H81        33.4460   21.9629    2.8222 H         1 UNK         0.1334 
     82 H82        33.2118   25.5847    0.5440 H         1 UNK         0.1417 
     83 H83        31.2870   22.0312   -0.8868 H         1 UNK         0.1562 
     84 H84        31.8058   24.1066   -2.4058 H         1 UNK         0.0748 
     85 H85        32.1533   25.6214   -1.5922 H         1 UNK         0.0748 
     86 H86        28.6735   25.6577   -3.1829 H         1 UNK         0.0940 
     87 H87        30.3142   26.2174   -3.2708 H         1 UNK         0.0940 
     88 H88        28.5275   28.0037   -2.9236 H         1 UNK         0.0703 
     89 H89        28.2999   27.2214   -0.0792 H         1 UNK         0.3081 
     90 H90        24.8117   27.5391   -0.1924 H         1 UNK         0.0719 
     91 H91        24.8859   25.1833   -1.0410 H         1 UNK         0.0809 
     92 H92        26.2195   24.8216    0.0454 H         1 UNK         0.0809 
     93 H93        24.6286   25.2162    0.6953 H         1 UNK         0.0809 
     94 H94        26.5211   26.4826    1.8388 H         1 UNK         0.2990 
     95 H95        27.9938   29.4392    2.9811 H         1 UNK         0.0690 
     96 H96        26.7202   29.0976    5.1062 H         1 UNK         0.0788 
     97 H97        25.5097   28.1562    4.2430 H         1 UNK         0.0788 
     98 H98        25.7164   29.8669    3.8911 H         1 UNK         0.0788 
     99 H99        27.8803   27.0982    4.4130 H         1 UNK         0.2993 
    100 H100       30.7992   25.9187    3.3906 H         1 UNK         0.0949 
    101 H101       29.9960   24.5735    5.3174 H         1 UNK         0.0767 
    102 H102       29.5370   26.2505    5.5108 H         1 UNK         0.0767 
    103 H103       28.3344   25.0630    5.0162 H         1 UNK         0.0767 
    104 H104       30.5097   24.0674    2.2252 H         1 UNK         0.3013 
    105 H105       30.0802   27.8064    0.2885 H         1 UNK         0.3121 
    106 H106       32.3534   29.4411   -0.5097 H         1 UNK         0.0774 
    107 H107       32.8589   29.4181    1.8989 H         1 UNK         0.0815 
    108 H108       31.2697   28.7896    2.2867 H         1 UNK         0.0815 
    109 H109       32.4242   27.7893    1.4056 H         1 UNK         0.0815 
    110 H110       29.0814   30.0273    0.3907 H         1 UNK         0.2987 
    111 H111       27.7382   31.7399    0.5540 H         1 UNK         0.0949 
    112 H112       29.9789   33.4640   -0.6194 H         1 UNK         0.0806 
    113 H113       28.7885   32.5462   -1.5402 H         1 UNK         0.0806 
    114 H114       28.2781   33.8916   -0.5335 H         1 UNK         0.0806 
    115 H115       30.9071   32.6526    1.8567 H         1 UNK         0.3010 
    116 H116       29.9117   34.6889    3.6508 H         1 UNK         0.0829 
    117 H117       32.1684   34.7755    2.6041 H         1 UNK         0.0813 
    118 H118       32.2916   34.8088    4.3541 H         1 UNK         0.0813 
    119 H119       32.6480   33.3229    3.4819 H         1 UNK         0.0813 
    120 H120       28.3668   32.6326    4.2636 H         1 UNK         0.3038 
    121 H121       27.3635   31.5400    5.8790 H         1 UNK         0.0769 
    122 H122       27.7327   32.2198    8.2360 H         1 UNK         0.0811 
    123 H123       27.7313   33.6222    7.1796 H         1 UNK         0.0811 
    124 H124       29.2525   32.9879    7.8071 H         1 UNK         0.0811 
    125 H125       30.8353   30.9974    5.8846 H         1 UNK         0.3204 
    126 H126       30.4691   28.1655    6.4800 H         1 UNK         0.0748 
    127 H127       30.7021   29.1642    8.7840 H         1 UNK         0.0771 
    128 H128       32.1153   28.2108    8.3848 H         1 UNK         0.0771 
    129 H129       32.1902   29.9671    8.2930 H         1 UNK         0.0771 
    130 H130       32.7563   27.1298    6.4393 H         1 UNK         0.2980 
    131 H131       34.0739   27.8297    3.9863 H         1 UNK         0.0545 
    132 H132       34.6259   29.1304    7.1784 H         1 UNK         0.3459 
    133 H133       36.2235   29.7422    6.8332 H         1 UNK         0.3459 
    134 H134       35.6207   25.9023    4.6299 H         1 UNK         0.0616 
    135 H135       34.7495   25.7535    6.1302 H         1 UNK         0.0616 
    136 H136       34.7865   25.4227    2.3460 H         1 UNK         0.0634 
    137 H137       35.1523   23.8776    3.0787 H         1 UNK         0.0634 
@<TRIPOS>BOND
     1    1    2 1    
     2    1   72 1    
     3    1   73 1    
     4    1   74 1    
     5    2    3 2    
     6    2    4 am   BACKBONE|DICT|INTERRES
     7    4    5 1    
     8    4   75 1    
     9    5    6 1    
    10    5   35 1    
    11    5   76 1    
    12    6    7 1    
    13    6   77 1    
    14    6   78 1    
    15    7    8 1    
    16    8    9 1    
    17    8   79 1    
    18    8   80 1    
    19    9   10 ar   
    20    9   14 ar   
    21   10   11 ar   
    22   10   81 1    
    23   11   12 ar   
    24   11   71 1    
    25   12   13 ar   
    26   12   82 1    
    27   13   14 ar   
    28   13   15 1    
    29   14   83 1    
    30   15   16 1    
    31   15   84 1    
    32   15   85 1    
    33   16   17 1    
    34   17   18 1    
    35   17   86 1    
    36   17   87 1    
    37   18   19 1    
    38   18   37 1    
    39   18   88 1    
    40   19   20 am   BACKBONE|DICT|INTERRES
    41   19   89 1    
    42   20   21 2    
    43   20   22 1    
    44   22   23 1    
    45   22   24 1    
    46   22   90 1    
    47   23   91 1    
    48   23   92 1    
    49   23   93 1    
    50   24   25 am   BACKBONE|DICT|INTERRES
    51   24   94 1    
    52   25   26 2    
    53   25   27 1    
    54   27   28 1    
    55   27   29 1    
    56   27   95 1    
    57   28   96 1    
    58   28   97 1    
    59   28   98 1    
    60   29   30 am   BACKBONE|DICT|INTERRES
    61   29   99 1    
    62   30   31 2    
    63   30   32 1    
    64   32   33 1    
    65   32   34 1    
    66   32  100 1    
    67   33  101 1    
    68   33  102 1    
    69   33  103 1    
    70   34   35 am   BACKBONE|DICT|INTERRES
    71   34  104 1    
    72   35   36 2    
    73   37   38 2    
    74   37   39 am   BACKBONE|DICT|INTERRES
    75   39   40 1    
    76   39  105 1    
    77   40   41 1    
    78   40   42 1    
    79   40  106 1    
    80   41  107 1    
    81   41  108 1    
    82   41  109 1    
    83   42   43 2    
    84   42   44 am   BACKBONE|DICT|INTERRES
    85   44   45 1    
    86   44  110 1    
    87   45   46 1    
    88   45   47 1    
    89   45  111 1    
    90   46  112 1    
    91   46  113 1    
    92   46  114 1    
    93   47   48 2    
    94   47   49 am   BACKBONE|DICT|INTERRES
    95   49   50 1    
    96   49  115 1    
    97   50   51 1    
    98   50   52 1    
    99   50  116 1    
   100   51  117 1    
   101   51  118 1    
   102   51  119 1    
   103   52   53 2    
   104   52   54 am   BACKBONE|DICT|INTERRES
   105   54   55 1    
   106   54  120 1    
   107   55   56 1    
   108   55   57 1    
   109   55  121 1    
   110   56  122 1    
   111   56  123 1    
   112   56  124 1    
   113   57   58 2    
   114   57   59 am   BACKBONE|DICT|INTERRES
   115   59   60 1    
   116   59  125 1    
   117   60   61 1    
   118   60   62 1    
   119   60  126 1    
   120   61  127 1    
   121   61  128 1    
   122   61  129 1    
   123   62   63 2    
   124   62   64 am   BACKBONE|DICT|INTERRES
   125   64   65 1    
   126   64  130 1    
   127   65   66 1    
   128   65   69 1    
   129   65  131 1    
   130   66   67 am   BACKBONE|DICT|INTERRES
   131   66   68 2    
   132   67  132 1    
   133   67  133 1    
   134   69   70 1    
   135   69  134 1    
   136   69  135 1    
   137   70   71 1    
   138   71  136 1    
   139   71  137 1    
@<TRIPOS>SUBSTRUCTURE
     1 UNK         1 GROUP             0       ****    0 ROOT    
