@<TRIPOS>MOLECULE
3R136
137   139    1
SMALL
USER_CHARGES


@<TRIPOS>ATOM
      1 CA         29.2208   27.9546   -1.4326 C.3       0 UNK        -0.1979 
      2 C          28.9312   26.6130   -0.7809 C.2       0 UNK         0.4864 
      3 O          28.0712   26.5329    0.1010 O.2       0 UNK        -0.5359 
      4 N          29.6356   25.5575   -1.2192 N.am      1 UNK        -0.4318 
      5 CA         29.4608   24.1813   -0.7405 C.3       1 UNK         0.0824 
      6 C6         30.5344   23.1914   -1.2769 C.3       12 UNK        -0.0944 
      7 S7         32.2956   23.4091   -0.8165 S.3       12 UNK        -0.2672 
      8 C8         32.4074   24.7521    0.4167 C.3       12 UNK         0.0333 
      9 C9         31.9566   24.4242    1.8408 C.ar      12 UNK        -0.0807 
     10 C10        32.2707   25.3412    2.8482 C.ar      12 UNK        -0.0894 
     11 C11        31.8446   25.1427    4.1644 C.ar      12 UNK        -0.0804 
     12 C12        31.1004   24.0020    4.4750 C.ar      12 UNK        -0.0824 
     13 C13        30.7783   23.0713    3.4825 C.ar      12 UNK        -0.0762 
     14 C14        31.2271   23.2754    2.1754 C.ar      12 UNK        -0.0782 
     15 C15        29.9147   21.8608    3.8127 C.3       12 UNK         0.0230 
     16 S16        28.2029   22.0611    3.2092 S.3       12 UNK        -0.2608 
     17 C17        27.7020   23.6031    4.0455 C.3       12 UNK        -0.0989 
     18 CA         27.7286   24.8101    3.0601 C.3       5 UNK         0.0716 
     19 N          26.5014   24.9312    2.2534 N.am      5 UNK        -0.4135 
     20 C          25.2999   25.3113    2.7231 C.2       4 UNK         0.5031 
     21 O          25.0499   25.4109    3.9258 O.2       4 UNK        -0.5229 
     22 CA         24.1943   25.6884    1.7188 C.3       4 UNK         0.0329 
     23 CB         23.3521   26.8753    2.2499 C.3       4 UNK        -0.2001 
     24 N          24.7114   25.9924    0.3791 N.am      4 UNK        -0.4303 
     25 C          23.9433   26.0983   -0.7155 C.2       3 UNK         0.5044 
     26 O          22.7235   25.9259   -0.7244 O.2       3 UNK        -0.5152 
     27 CA         24.6582   26.4329   -2.0336 C.3       3 UNK         0.0319 
     28 CB         25.3363   27.8135   -1.9791 C.3       3 UNK        -0.2001 
     29 N          25.6334   25.4039   -2.3899 N.am      3 UNK        -0.4354 
     30 C          25.3242   24.1407   -2.7228 C.2       2 UNK         0.4964 
     31 O          24.1716   23.7257   -2.8480 O.2       2 UNK        -0.5047 
     32 CA         26.4907   23.1680   -2.9703 C.3       2 UNK         0.0288 
     33 CB         26.6721   22.9155   -4.4765 C.3       2 UNK        -0.2113 
     34 N          27.7663   23.6156   -2.4064 N.am      2 UNK        -0.4145 
     35 C          28.0513   23.6714   -1.0970 C.2       1 UNK         0.5006 
     36 O          27.2511   23.3930   -0.2032 O.2       1 UNK        -0.5103 
     37 C          28.0629   26.1642    3.7291 C.2       5 UNK         0.5055 
     38 O          28.1904   26.2495    4.9525 O.2       5 UNK        -0.5220 
     39 N          28.1258   27.2146    2.9008 N.am      6 UNK        -0.4450 
     40 CA         28.2153   28.6065    3.3284 C.3       6 UNK         0.0367 
     41 CB         26.7980   29.1559    3.5882 C.3       6 UNK        -0.1929 
     42 C          28.9879   29.4159    2.2818 C.2       6 UNK         0.5070 
     43 O          28.4370   30.3312    1.6693 O.2       6 UNK        -0.5237 
     44 N          30.2702   29.0817    2.0994 N.am      7 UNK        -0.4739 
     45 CA         31.2155   29.7640    1.2060 C.3       7 UNK         0.0276 
     46 CB         32.3413   28.7818    0.8390 C.3       7 UNK        -0.1927 
     47 C          31.7531   31.0911    1.7867 C.2       7 UNK         0.5013 
     48 O          32.9515   31.3658    1.6916 O.2       7 UNK        -0.5193 
     49 N          30.8565   31.8934    2.3782 N.am      8 UNK        -0.4253 
     50 CA         31.1008   33.1886    3.0192 C.3       8 UNK         0.0242 
     51 CB         31.3097   34.2767    1.9403 C.3       8 UNK        -0.2000 
     52 C          32.2267   33.1094    4.0711 C.2       8 UNK         0.4948 
     53 O          32.1412   32.2873    4.9860 O.2       8 UNK        -0.5275 
     54 N          33.2656   33.9409    3.9142 N.am      9 UNK        -0.4246 
     55 CA         34.4266   34.0335    4.8013 C.3       9 UNK         0.0261 
     56 CB         35.2920   35.2300    4.3737 C.3       9 UNK        -0.1959 
     57 C          35.2816   32.7560    4.8800 C.2       9 UNK         0.5033 
     58 O          35.9739   32.5746    5.8829 O.2       9 UNK        -0.5390 
     59 N          35.2180   31.8809    3.8627 N.am      10 UNK        -0.4215 
     60 CA         35.9556   30.6115    3.8342 C.3       10 UNK         0.0240 
     61 CB         35.8915   29.9956    2.4282 C.3       10 UNK        -0.1982 
     62 C          35.4797   29.6015    4.8947 C.2       10 UNK         0.4970 
     63 O          36.2625   28.7317    5.2792 O.2       10 UNK        -0.4916 
     64 N          34.2339   29.7468    5.3655 N.am      11 UNK        -0.4279 
     65 CA         33.6825   28.9948    6.5016 C.3       11 UNK         0.1003 
     66 C          34.0213   29.6187    7.8883 C.2       11 UNK         0.5709 
     67 N          34.7383   30.7345    7.9751 N.am      11 UNK        -0.7358 
     68 O          33.6397   29.0659    8.9173 O.2       11 UNK        -0.4999 
     69 C69        32.1598   28.7398    6.3435 C.3       12 UNK        -0.0954 
     70 S70        31.7360   27.8508    4.8099 S.3       12 UNK        -0.2268 
     71 C71        32.1991   26.1463    5.2550 C.3       12 UNK         0.0203 
     72 H72        30.2858   28.0799   -1.6252 H         1 UNK         0.0888 
     73 H73        28.6848   28.0378   -2.3773 H         1 UNK         0.0888 
     74 H74        28.8932   28.7689   -0.7873 H         1 UNK         0.0888 
     75 H75        30.3267   25.6880   -1.9447 H         1 UNK         0.3017 
     76 H76        29.5174   24.2034    0.3454 H         1 UNK         0.0873 
     77 H77        30.5082   23.1689   -2.3678 H         1 UNK         0.0745 
     78 H78        30.2765   22.1765   -0.9662 H         1 UNK         0.0745 
     79 H79        33.4568   25.0483    0.4580 H         1 UNK         0.0705 
     80 H80        31.8731   25.6283    0.0601 H         1 UNK         0.0705 
     81 H81        32.8459   26.2240    2.6063 H         1 UNK         0.1334 
     82 H82        30.7590   23.8451    5.4891 H         1 UNK         0.1417 
     83 H83        30.9697   22.5451    1.4227 H         1 UNK         0.1562 
     84 H84        29.8975   21.6796    4.8886 H         1 UNK         0.0748 
     85 H85        30.3487   20.9679    3.3604 H         1 UNK         0.0748 
     86 H86        28.3608   23.7536    4.9007 H         1 UNK         0.0940 
     87 H87        26.7110   23.4631    4.4779 H         1 UNK         0.0940 
     88 H88        28.5434   24.6535    2.3543 H         1 UNK         0.0703 
     89 H89        26.6244   24.7505    1.2636 H         1 UNK         0.3081 
     90 H90        23.5470   24.8127    1.6394 H         1 UNK         0.0719 
     91 H91        22.5125   27.1116    1.5975 H         1 UNK         0.0809 
     92 H92        23.9572   27.7765    2.3533 H         1 UNK         0.0809 
     93 H93        22.9249   26.6553    3.2291 H         1 UNK         0.0809 
     94 H94        25.7052   26.1675    0.2978 H         1 UNK         0.2990 
     95 H95        23.9039   26.4645   -2.8230 H         1 UNK         0.0690 
     96 H96        25.7925   28.0687   -2.9357 H         1 UNK         0.0788 
     97 H97        26.1108   27.8666   -1.2144 H         1 UNK         0.0788 
     98 H98        24.6070   28.5926   -1.7528 H         1 UNK         0.0788 
     99 H99        26.6079   25.6509   -2.3141 H         1 UNK         0.2993 
    100 H100       26.2250   22.2222   -2.4926 H         1 UNK         0.0949 
    101 H101       27.4417   22.1663   -4.6641 H         1 UNK         0.0767 
    102 H102       25.7486   22.5461   -4.9250 H         1 UNK         0.0767 
    103 H103       26.9508   23.8262   -5.0085 H         1 UNK         0.0767 
    104 H104       28.4775   23.8901   -3.0686 H         1 UNK         0.3013 
    105 H105       28.0548   27.0545    1.8961 H         1 UNK         0.3121 
    106 H106       28.7836   28.6709    4.2589 H         1 UNK         0.0774 
    107 H107       26.8349   30.1963    3.9132 H         1 UNK         0.0815 
    108 H108       26.1807   29.1136    2.6901 H         1 UNK         0.0815 
    109 H109       26.2896   28.5902    4.3693 H         1 UNK         0.0815 
    110 H110       30.6575   28.3561    2.6893 H         1 UNK         0.2987 
    111 H111       30.6950   30.0286    0.2837 H         1 UNK         0.0949 
    112 H112       32.8964   28.4629    1.7211 H         1 UNK         0.0806 
    113 H113       31.9425   27.8947    0.3517 H         1 UNK         0.0806 
    114 H114       33.0531   29.2340    0.1469 H         1 UNK         0.0806 
    115 H115       29.8953   31.5696    2.3812 H         1 UNK         0.3010 
    116 H116       30.1925   33.4373    3.5700 H         1 UNK         0.0829 
    117 H117       30.4570   34.3185    1.2625 H         1 UNK         0.0813 
    118 H118       31.4042   35.2683    2.3853 H         1 UNK         0.0813 
    119 H119       32.1972   34.0912    1.3337 H         1 UNK         0.0813 
    120 H120       33.2559   34.5623    3.1183 H         1 UNK         0.3038 
    121 H121       34.0512   34.2273    5.8084 H         1 UNK         0.0769 
    122 H122       36.1515   35.3467    5.0356 H         1 UNK         0.0811 
    123 H123       34.7291   36.1629    4.4121 H         1 UNK         0.0811 
    124 H124       35.6763   35.1090    3.3601 H         1 UNK         0.0811 
    125 H125       34.5846   32.0600    3.0911 H         1 UNK         0.3204 
    126 H126       37.0019   30.8368    4.0515 H         1 UNK         0.0748 
    127 H127       36.5287   29.1128    2.3617 H         1 UNK         0.0771 
    128 H128       34.8808   29.6823    2.1722 H         1 UNK         0.0771 
    129 H129       36.2298   30.6985    1.6668 H         1 UNK         0.0771 
    130 H130       33.6556   30.4989    5.0140 H         1 UNK         0.2980 
    131 H131       34.1628   28.0156    6.5205 H         1 UNK         0.0545 
    132 H132       35.0895   31.2060    7.1503 H         1 UNK         0.3459 
    133 H133       34.9466   31.1082    8.8871 H         1 UNK         0.3459 
    134 H134       31.6188   29.6878    6.3419 H         1 UNK         0.0616 
    135 H135       31.7685   28.1676    7.1865 H         1 UNK         0.0616 
    136 H136       33.2731   26.0984    5.4370 H         1 UNK         0.0634 
    137 H137       31.7074   25.8838    6.1929 H         1 UNK         0.0634 
@<TRIPOS>BOND
     1    1    2 1    
     2    1   72 1    
     3    1   73 1    
     4    1   74 1    
     5    2    3 2    
     6    2    4 am   BACKBONE|DICT|INTERRES
     7    4    5 1    
     8    4   75 1    
     9    5    6 1    
    10    5   35 1    
    11    5   76 1    
    12    6    7 1    
    13    6   77 1    
    14    6   78 1    
    15    7    8 1    
    16    8    9 1    
    17    8   79 1    
    18    8   80 1    
    19    9   10 ar   
    20    9   14 ar   
    21   10   11 ar   
    22   10   81 1    
    23   11   12 ar   
    24   11   71 1    
    25   12   13 ar   
    26   12   82 1    
    27   13   14 ar   
    28   13   15 1    
    29   14   83 1    
    30   15   16 1    
    31   15   84 1    
    32   15   85 1    
    33   16   17 1    
    34   17   18 1    
    35   17   86 1    
    36   17   87 1    
    37   18   19 1    
    38   18   37 1    
    39   18   88 1    
    40   19   20 am   BACKBONE|DICT|INTERRES
    41   19   89 1    
    42   20   21 2    
    43   20   22 1    
    44   22   23 1    
    45   22   24 1    
    46   22   90 1    
    47   23   91 1    
    48   23   92 1    
    49   23   93 1    
    50   24   25 am   BACKBONE|DICT|INTERRES
    51   24   94 1    
    52   25   26 2    
    53   25   27 1    
    54   27   28 1    
    55   27   29 1    
    56   27   95 1    
    57   28   96 1    
    58   28   97 1    
    59   28   98 1    
    60   29   30 am   BACKBONE|DICT|INTERRES
    61   29   99 1    
    62   30   31 2    
    63   30   32 1    
    64   32   33 1    
    65   32   34 1    
    66   32  100 1    
    67   33  101 1    
    68   33  102 1    
    69   33  103 1    
    70   34   35 am   BACKBONE|DICT|INTERRES
    71   34  104 1    
    72   35   36 2    
    73   37   38 2    
    74   37   39 am   BACKBONE|DICT|INTERRES
    75   39   40 1    
    76   39  105 1    
    77   40   41 1    
    78   40   42 1    
    79   40  106 1    
    80   41  107 1    
    81   41  108 1    
    82   41  109 1    
    83   42   43 2    
    84   42   44 am   BACKBONE|DICT|INTERRES
    85   44   45 1    
    86   44  110 1    
    87   45   46 1    
    88   45   47 1    
    89   45  111 1    
    90   46  112 1    
    91   46  113 1    
    92   46  114 1    
    93   47   48 2    
    94   47   49 am   BACKBONE|DICT|INTERRES
    95   49   50 1    
    96   49  115 1    
    97   50   51 1    
    98   50   52 1    
    99   50  116 1    
   100   51  117 1    
   101   51  118 1    
   102   51  119 1    
   103   52   53 2    
   104   52   54 am   BACKBONE|DICT|INTERRES
   105   54   55 1    
   106   54  120 1    
   107   55   56 1    
   108   55   57 1    
   109   55  121 1    
   110   56  122 1    
   111   56  123 1    
   112   56  124 1    
   113   57   58 2    
   114   57   59 am   BACKBONE|DICT|INTERRES
   115   59   60 1    
   116   59  125 1    
   117   60   61 1    
   118   60   62 1    
   119   60  126 1    
   120   61  127 1    
   121   61  128 1    
   122   61  129 1    
   123   62   63 2    
   124   62   64 am   BACKBONE|DICT|INTERRES
   125   64   65 1    
   126   64  130 1    
   127   65   66 1    
   128   65   69 1    
   129   65  131 1    
   130   66   67 am   BACKBONE|DICT|INTERRES
   131   66   68 2    
   132   67  132 1    
   133   67  133 1    
   134   69   70 1    
   135   69  134 1    
   136   69  135 1    
   137   70   71 1    
   138   71  136 1    
   139   71  137 1    
@<TRIPOS>SUBSTRUCTURE
     1 UNK         1 GROUP             0       ****    0 ROOT    
