@<TRIPOS>MOLECULE
3R136
137   139    1
SMALL
USER_CHARGES


@<TRIPOS>ATOM
      1 CA         26.4423   20.4322    4.0336 C.3       0 UNK        -0.1979 
      2 C          26.7927   21.1846    2.7588 C.2       0 UNK         0.4864 
      3 O          25.8936   21.6018    2.0274 O.2       0 UNK        -0.5359 
      4 N          28.0934   21.3734    2.4918 N.am      1 UNK        -0.4318 
      5 CA         28.6214   22.0649    1.3067 C.3       1 UNK         0.0824 
      6 C6         30.1410   21.8067    1.1325 C.3       12 UNK        -0.0944 
      7 S7         31.1997   22.5667    2.4222 S.3       12 UNK        -0.2672 
      8 C8         32.6777   23.0507    1.4670 C.3       12 UNK         0.0333 
      9 C9         32.6450   24.4932    0.9648 C.ar      12 UNK        -0.0807 
     10 C10        33.6636   25.3823    1.3232 C.ar      12 UNK        -0.0894 
     11 C11        33.6947   26.6797    0.8017 C.ar      12 UNK        -0.0804 
     12 C12        32.6824   27.0990   -0.0661 C.ar      12 UNK        -0.0824 
     13 C13        31.6530   26.2233   -0.4374 C.ar      12 UNK        -0.0762 
     14 C14        31.6492   24.9263    0.0842 C.ar      12 UNK        -0.0782 
     15 C15        30.5472   26.5907   -1.4294 C.3       12 UNK         0.0230 
     16 S16        30.5639   28.2999   -2.0731 S.3       12 UNK        -0.2608 
     17 C17        29.6863   29.1843   -0.7419 C.3       12 UNK        -0.0989 
     18 CA         28.2128   29.4986   -1.1131 C.3       5 UNK         0.0716 
     19 N          27.4285   28.2666   -1.3036 N.am      5 UNK        -0.4135 
     20 C          26.9222   27.8602   -2.4778 C.2       4 UNK         0.5031 
     21 O          26.9540   28.5362   -3.5073 O.2       4 UNK        -0.5229 
     22 CA         26.2911   26.4550   -2.5474 C.3       4 UNK         0.0329 
     23 CB         27.2752   25.4464   -3.1629 C.3       4 UNK        -0.2001 
     24 N          25.8347   25.9440   -1.2545 N.am      4 UNK        -0.4303 
     25 C          24.6975   26.3245   -0.6556 C.2       3 UNK         0.5044 
     26 O          23.8979   27.1187   -1.1516 O.2       3 UNK        -0.5152 
     27 CA         24.4029   25.7435    0.7414 C.3       3 UNK         0.0319 
     28 CB         23.4644   24.5315    0.6294 C.3       3 UNK        -0.2001 
     29 N          25.5874   25.3582    1.5168 N.am      3 UNK        -0.4354 
     30 C          26.6157   26.1632    1.8205 C.2       2 UNK         0.4964 
     31 O          26.7155   27.3228    1.4262 O.2       2 UNK        -0.5047 
     32 CA         27.7435   25.5754    2.6763 C.3       2 UNK         0.0288 
     33 CB         27.4310   25.8021    4.1649 C.3       2 UNK        -0.2113 
     34 N          28.0109   24.1558    2.4462 N.am      2 UNK        -0.4145 
     35 C          28.2804   23.5719    1.2670 C.2       1 UNK         0.5006 
     36 O          28.2640   24.1615    0.1838 O.2       1 UNK        -0.5103 
     37 C          27.5854   30.4466   -0.0686 C.2       5 UNK         0.5055 
     38 O          28.0368   31.5875    0.0383 O.2       5 UNK        -0.5220 
     39 N          26.5866   29.9696    0.6895 N.am      6 UNK        -0.4450 
     40 CA         25.9444   30.5972    1.8523 C.3       6 UNK         0.0367 
     41 CB         25.3069   31.9577    1.4972 C.3       6 UNK        -0.1929 
     42 C          26.8567   30.6663    3.0963 C.2       6 UNK         0.5070 
     43 O          26.5463   31.4043    4.0326 O.2       6 UNK        -0.5237 
     44 N          27.9419   29.8824    3.1062 N.am      7 UNK        -0.4739 
     45 CA         28.9292   29.7607    4.1757 C.3       7 UNK         0.0276 
     46 CB         29.7567   31.0568    4.3083 C.3       7 UNK        -0.1927 
     47 C          29.8571   28.5869    3.8457 C.2       7 UNK         0.5013 
     48 O          30.0202   28.2541    2.6715 O.2       7 UNK        -0.5193 
     49 N          30.4835   28.0224    4.8795 N.am      8 UNK        -0.4253 
     50 CA         31.6067   27.0931    4.7970 C.3       8 UNK         0.0242 
     51 CB         31.1193   25.6373    4.8601 C.3       8 UNK        -0.2000 
     52 C          32.5369   27.4303    5.9673 C.2       8 UNK         0.4948 
     53 O          32.0702   27.9903    6.9647 O.2       8 UNK        -0.5275 
     54 N          33.8369   27.1438    5.8135 N.am      9 UNK        -0.4246 
     55 CA         34.9619   27.4924    6.7018 C.3       9 UNK         0.0261 
     56 CB         34.8106   26.8616    8.1002 C.3       9 UNK        -0.1959 
     57 C          35.2371   29.0078    6.7924 C.2       9 UNK         0.5033 
     58 O          36.3781   29.4284    6.6030 O.2       9 UNK        -0.5390 
     59 N          34.1838   29.7998    7.0252 N.am      10 UNK        -0.4215 
     60 CA         34.1608   31.2636    6.9383 C.3       10 UNK         0.0240 
     61 CB         33.0280   31.7876    7.8379 C.3       10 UNK        -0.1982 
     62 C          33.9909   31.7784    5.4920 C.2       10 UNK         0.4970 
     63 O          33.9753   32.9922    5.2841 O.2       10 UNK        -0.4916 
     64 N          33.8423   30.8576    4.5316 N.am      11 UNK        -0.4279 
     65 CA         33.7539   31.0890    3.0845 C.3       11 UNK         0.1003 
     66 C          34.9836   31.8270    2.4797 C.2       11 UNK         0.5709 
     67 N          34.7967   32.5234    1.3663 N.am      11 UNK        -0.7358 
     68 O          36.1028   31.7515    2.9843 O.2       11 UNK        -0.4999 
     69 C69        33.4549   29.7576    2.3412 C.3       12 UNK        -0.0954 
     70 S70        34.6400   28.4213    2.7382 S.3       12 UNK        -0.2268 
     71 C71        34.8563   27.6063    1.1311 C.3       12 UNK         0.0203 
     72 H72        25.8703   19.5362    3.7941 H         1 UNK         0.0888 
     73 H73        27.3315   20.1290    4.5861 H         1 UNK         0.0888 
     74 H74        25.8354   21.0602    4.6852 H         1 UNK         0.0888 
     75 H75        28.7910   21.0166    3.1304 H         1 UNK         0.3017 
     76 H76        28.1201   21.6240    0.4421 H         1 UNK         0.0873 
     77 H77        30.4590   22.1360    0.1435 H         1 UNK         0.0745 
     78 H78        30.3305   20.7321    1.1399 H         1 UNK         0.0745 
     79 H79        32.8138   22.3751    0.6215 H         1 UNK         0.0705 
     80 H80        33.5466   22.8991    2.1092 H         1 UNK         0.0705 
     81 H81        34.4552   25.0574    1.9845 H         1 UNK         0.1334 
     82 H82        32.7225   28.1016   -0.4655 H         1 UNK         0.1417 
     83 H83        30.8686   24.2471   -0.2202 H         1 UNK         0.1562 
     84 H84        29.5794   26.3935   -0.9668 H         1 UNK         0.0748 
     85 H85        30.6211   25.9171   -2.2842 H         1 UNK         0.0748 
     86 H86        30.2421   30.1036   -0.5462 H         1 UNK         0.0940 
     87 H87        29.7386   28.6013    0.1778 H         1 UNK         0.0940 
     88 H88        28.2261   30.0739   -2.0410 H         1 UNK         0.0703 
     89 H89        27.3308   27.6647   -0.4941 H         1 UNK         0.3081 
     90 H90        25.4294   26.5255   -3.2150 H         1 UNK         0.0719 
     91 H91        26.7884   24.4908   -3.3582 H         1 UNK         0.0809 
     92 H92        27.6677   25.8089   -4.1142 H         1 UNK         0.0809 
     93 H93        28.1254   25.2569   -2.5085 H         1 UNK         0.0809 
     94 H94        26.4442   25.2924   -0.7746 H         1 UNK         0.2990 
     95 H95        23.8889   26.5224    1.3082 H         1 UNK         0.0690 
     96 H96        22.5601   24.7853    0.0741 H         1 UNK         0.0788 
     97 H97        23.1504   24.1797    1.6124 H         1 UNK         0.0788 
     98 H98        23.9430   23.6985    0.1126 H         1 UNK         0.0788 
     99 H99        25.6124   24.4075    1.8595 H         1 UNK         0.2993 
    100 H100       28.6578   26.1099    2.4172 H         1 UNK         0.0949 
    101 H101       26.5273   25.2736    4.4715 H         1 UNK         0.0767 
    102 H102       28.2444   25.4657    4.8056 H         1 UNK         0.0767 
    103 H103       27.2741   26.8614    4.3735 H         1 UNK         0.0767 
    104 H104       28.0561   23.5707    3.2670 H         1 UNK         0.3013 
    105 H105       26.3617   28.9843    0.5914 H         1 UNK         0.3121 
    106 H106       25.1315   29.9239    2.1283 H         1 UNK         0.0774 
    107 H107       26.0592   32.7254    1.3156 H         1 UNK         0.0815 
    108 H108       24.6749   32.3151    2.3109 H         1 UNK         0.0815 
    109 H109       24.6789   31.8833    0.6096 H         1 UNK         0.0815 
    110 H110       28.1127   29.2654    2.3204 H         1 UNK         0.2987 
    111 H111       28.4082   29.5515    5.1123 H         1 UNK         0.0949 
    112 H112       30.2475   31.3146    3.3688 H         1 UNK         0.0806 
    113 H113       29.1375   31.9034    4.6039 H         1 UNK         0.0806 
    114 H114       30.5360   30.9538    5.0648 H         1 UNK         0.0806 
    115 H115       30.3356   28.3823    5.8153 H         1 UNK         0.3010 
    116 H116       32.1460   27.2491    3.8605 H         1 UNK         0.0829 
    117 H117       31.9596   24.9418    4.8593 H         1 UNK         0.0813 
    118 H118       30.5335   25.4443    5.7593 H         1 UNK         0.0813 
    119 H119       30.5080   25.3926    3.9919 H         1 UNK         0.0813 
    120 H120       34.1139   26.7077    4.9438 H         1 UNK         0.3038 
    121 H121       35.8444   27.0453    6.2407 H         1 UNK         0.0769 
    122 H122       33.9626   27.2707    8.6497 H         1 UNK         0.0811 
    123 H123       35.7013   27.0412    8.7037 H         1 UNK         0.0811 
    124 H124       34.6767   25.7819    8.0344 H         1 UNK         0.0811 
    125 H125       33.2892   29.3315    7.1675 H         1 UNK         0.3204 
    126 H126       35.1087   31.6550    7.3133 H         1 UNK         0.0748 
    127 H127       33.1618   31.4660    8.8710 H         1 UNK         0.0771 
    128 H128       33.0007   32.8782    7.8420 H         1 UNK         0.0771 
    129 H129       32.0512   31.4373    7.5014 H         1 UNK         0.0771 
    130 H130       33.9242   29.8897    4.7980 H         1 UNK         0.2980 
    131 H131       32.8947   31.7464    2.9392 H         1 UNK         0.0545 
    132 H132       35.5822   32.9993    0.9509 H         1 UNK         0.3459 
    133 H133       33.8881   32.5881    0.9349 H         1 UNK         0.3459 
    134 H134       32.4597   29.4062    2.6104 H         1 UNK         0.0616 
    135 H135       33.4212   29.9193    1.2626 H         1 UNK         0.0616 
    136 H136       34.9940   28.3559    0.3503 H         1 UNK         0.0634 
    137 H137       35.7813   27.0286    1.1586 H         1 UNK         0.0634 
@<TRIPOS>BOND
     1    1    2 1    
     2    1   72 1    
     3    1   73 1    
     4    1   74 1    
     5    2    3 2    
     6    2    4 am   BACKBONE|DICT|INTERRES
     7    4    5 1    
     8    4   75 1    
     9    5    6 1    
    10    5   35 1    
    11    5   76 1    
    12    6    7 1    
    13    6   77 1    
    14    6   78 1    
    15    7    8 1    
    16    8    9 1    
    17    8   79 1    
    18    8   80 1    
    19    9   10 ar   
    20    9   14 ar   
    21   10   11 ar   
    22   10   81 1    
    23   11   12 ar   
    24   11   71 1    
    25   12   13 ar   
    26   12   82 1    
    27   13   14 ar   
    28   13   15 1    
    29   14   83 1    
    30   15   16 1    
    31   15   84 1    
    32   15   85 1    
    33   16   17 1    
    34   17   18 1    
    35   17   86 1    
    36   17   87 1    
    37   18   19 1    
    38   18   37 1    
    39   18   88 1    
    40   19   20 am   BACKBONE|DICT|INTERRES
    41   19   89 1    
    42   20   21 2    
    43   20   22 1    
    44   22   23 1    
    45   22   24 1    
    46   22   90 1    
    47   23   91 1    
    48   23   92 1    
    49   23   93 1    
    50   24   25 am   BACKBONE|DICT|INTERRES
    51   24   94 1    
    52   25   26 2    
    53   25   27 1    
    54   27   28 1    
    55   27   29 1    
    56   27   95 1    
    57   28   96 1    
    58   28   97 1    
    59   28   98 1    
    60   29   30 am   BACKBONE|DICT|INTERRES
    61   29   99 1    
    62   30   31 2    
    63   30   32 1    
    64   32   33 1    
    65   32   34 1    
    66   32  100 1    
    67   33  101 1    
    68   33  102 1    
    69   33  103 1    
    70   34   35 am   BACKBONE|DICT|INTERRES
    71   34  104 1    
    72   35   36 2    
    73   37   38 2    
    74   37   39 am   BACKBONE|DICT|INTERRES
    75   39   40 1    
    76   39  105 1    
    77   40   41 1    
    78   40   42 1    
    79   40  106 1    
    80   41  107 1    
    81   41  108 1    
    82   41  109 1    
    83   42   43 2    
    84   42   44 am   BACKBONE|DICT|INTERRES
    85   44   45 1    
    86   44  110 1    
    87   45   46 1    
    88   45   47 1    
    89   45  111 1    
    90   46  112 1    
    91   46  113 1    
    92   46  114 1    
    93   47   48 2    
    94   47   49 am   BACKBONE|DICT|INTERRES
    95   49   50 1    
    96   49  115 1    
    97   50   51 1    
    98   50   52 1    
    99   50  116 1    
   100   51  117 1    
   101   51  118 1    
   102   51  119 1    
   103   52   53 2    
   104   52   54 am   BACKBONE|DICT|INTERRES
   105   54   55 1    
   106   54  120 1    
   107   55   56 1    
   108   55   57 1    
   109   55  121 1    
   110   56  122 1    
   111   56  123 1    
   112   56  124 1    
   113   57   58 2    
   114   57   59 am   BACKBONE|DICT|INTERRES
   115   59   60 1    
   116   59  125 1    
   117   60   61 1    
   118   60   62 1    
   119   60  126 1    
   120   61  127 1    
   121   61  128 1    
   122   61  129 1    
   123   62   63 2    
   124   62   64 am   BACKBONE|DICT|INTERRES
   125   64   65 1    
   126   64  130 1    
   127   65   66 1    
   128   65   69 1    
   129   65  131 1    
   130   66   67 am   BACKBONE|DICT|INTERRES
   131   66   68 2    
   132   67  132 1    
   133   67  133 1    
   134   69   70 1    
   135   69  134 1    
   136   69  135 1    
   137   70   71 1    
   138   71  136 1    
   139   71  137 1    
@<TRIPOS>SUBSTRUCTURE
     1 UNK         1 GROUP             0       ****    0 ROOT    
