@<TRIPOS>MOLECULE
3R136
137   139    1
SMALL
USER_CHARGES


@<TRIPOS>ATOM
      1 CA         25.5117   23.6184   -2.0878 C.3       0 UNK        -0.1979 
      2 C          26.9984   23.2949   -2.0542 C.2       0 UNK         0.4864 
      3 O          27.7075   23.5773   -3.0205 O.2       0 UNK        -0.5359 
      4 N          27.4738   22.7033   -0.9507 N.am      1 UNK        -0.4318 
      5 CA         28.8845   22.3869   -0.7145 C.3       1 UNK         0.0824 
      6 C6         29.0307   21.3730    0.4454 C.3       12 UNK        -0.0944 
      7 S7         30.7516   20.8173    0.7099 S.3       12 UNK        -0.2672 
      8 C8         30.7352   20.3383    2.4665 C.3       12 UNK         0.0333 
      9 C9         30.4308   21.5037    3.4002 C.ar      12 UNK        -0.0807 
     10 C10        31.4043   22.4691    3.6742 C.ar      12 UNK        -0.0894 
     11 C11        31.1412   23.5044    4.5776 C.ar      12 UNK        -0.0804 
     12 C12        29.8935   23.5708    5.2047 C.ar      12 UNK        -0.0824 
     13 C13        28.8954   22.6333    4.9097 C.ar      12 UNK        -0.0762 
     14 C14        29.1795   21.5962    4.0170 C.ar      12 UNK        -0.0782 
     15 C15        27.5208   22.6878    5.5728 C.3       12 UNK         0.0230 
     16 S16        26.8462   24.3705    5.7709 S.3       12 UNK        -0.2608 
     17 C17        26.5420   24.9075    4.0476 C.3       12 UNK        -0.0989 
     18 CA         27.6602   25.8258    3.4794 C.3       5 UNK         0.0716 
     19 N          27.5606   26.0196    2.0295 N.am      5 UNK        -0.4135 
     20 C          26.6290   26.7273    1.3744 C.2       4 UNK         0.5031 
     21 O          25.6380   27.2275    1.9085 O.2       4 UNK        -0.5229 
     22 CA         26.8719   26.9203   -0.1374 C.3       4 UNK         0.0329 
     23 CB         25.8659   27.8865   -0.7951 C.3       4 UNK        -0.2001 
     24 N          28.2492   27.3232   -0.4547 N.am      4 UNK        -0.4303 
     25 C          28.9404   28.3607    0.0418 C.2       3 UNK         0.5044 
     26 O          28.4768   29.1676    0.8472 O.2       3 UNK        -0.5152 
     27 CA         30.4127   28.4941   -0.4022 C.3       3 UNK         0.0319 
     28 CB         31.1949   29.5013    0.4604 C.3       3 UNK        -0.2001 
     29 N          31.1107   27.2063   -0.3642 N.am      3 UNK        -0.4354 
     30 C          31.0871   26.2831   -1.3332 C.2       2 UNK         0.4964 
     31 O          30.5011   26.4411   -2.4048 O.2       2 UNK        -0.5047 
     32 CA         31.7788   24.9358   -1.0500 C.3       2 UNK         0.0288 
     33 CB         32.5449   24.8787    0.2908 C.3       2 UNK        -0.2113 
     34 N          30.8302   23.8201   -1.1335 N.am      2 UNK        -0.4145 
     35 C          29.6812   23.6817   -0.4524 C.2       1 UNK         0.5006 
     36 O          29.2503   24.5005    0.3658 O.2       1 UNK        -0.5103 
     37 C          27.8241   27.1801    4.2113 C.2       5 UNK         0.5055 
     38 O          26.9960   27.5524    5.0455 O.2       5 UNK        -0.5220 
     39 N          28.9075   27.8892    3.8614 N.am      6 UNK        -0.4450 
     40 CA         29.3694   29.1533    4.4454 C.3       6 UNK         0.0367 
     41 CB         29.9034   28.9187    5.8747 C.3       6 UNK        -0.1929 
     42 C          28.3412   30.3020    4.3665 C.2       6 UNK         0.5070 
     43 O          28.1690   31.0449    5.3348 O.2       6 UNK        -0.5237 
     44 N          27.6700   30.4317    3.2149 N.am      7 UNK        -0.4739 
     45 CA         26.6789   31.4781    2.9473 C.3       7 UNK         0.0276 
     46 CB         25.7353   31.0008    1.8325 C.3       7 UNK        -0.1927 
     47 C          27.3201   32.8225    2.5606 C.2       7 UNK         0.5013 
     48 O          26.6774   33.8612    2.7216 O.2       7 UNK        -0.5193 
     49 N          28.5569   32.7772    2.0515 N.am      8 UNK        -0.4253 
     50 CA         29.3679   33.9313    1.6723 C.3       8 UNK         0.0242 
     51 CB         29.6745   33.8575    0.1614 C.3       8 UNK        -0.2000 
     52 C          30.6112   33.9332    2.5725 C.2       8 UNK         0.4948 
     53 O          30.4926   34.2554    3.7561 O.2       8 UNK        -0.5275 
     54 N          31.7691   33.5470    2.0202 N.am      9 UNK        -0.4246 
     55 CA         32.9831   33.2280    2.7755 C.3       9 UNK         0.0261 
     56 CB         34.1589   33.1000    1.7929 C.3       9 UNK        -0.1959 
     57 C          32.8027   31.9194    3.5641 C.2       9 UNK         0.5033 
     58 O          31.9552   31.1017    3.1990 O.2       9 UNK        -0.5390 
     59 N          33.6201   31.7152    4.6043 N.am      10 UNK        -0.4215 
     60 CA         33.6024   30.5325    5.4748 C.3       10 UNK         0.0240 
     61 CB         34.3150   30.8765    6.7966 C.3       10 UNK        -0.1982 
     62 C          34.1822   29.2722    4.7950 C.2       10 UNK         0.4970 
     63 O          35.1626   28.7063    5.2830 O.2       10 UNK        -0.4916 
     64 N          33.5664   28.8716    3.6761 N.am      11 UNK        -0.4279 
     65 CA         33.9653   27.7628    2.7952 C.3       11 UNK         0.1003 
     66 C          35.3712   27.9788    2.1519 C.2       11 UNK         0.5709 
     67 N          36.0582   26.9267    1.7249 N.am      11 UNK        -0.7358 
     68 O          35.8251   29.1082    1.9747 O.2       11 UNK        -0.4999 
     69 C69        33.7619   26.3682    3.4591 C.3       12 UNK        -0.0954 
     70 S70        32.0180   26.0331    3.8739 S.3       12 UNK        -0.2268 
     71 C71        32.2119   24.5376    4.8931 C.3       12 UNK         0.0203 
     72 H72        25.0136   23.0103   -2.8424 H         1 UNK         0.0888 
     73 H73        25.0313   23.4304   -1.1277 H         1 UNK         0.0888 
     74 H74        25.3595   24.6670   -2.3422 H         1 UNK         0.0888 
     75 H75        26.8483   22.5124   -0.1815 H         1 UNK         0.3017 
     76 H76        29.2711   21.9163   -1.6214 H         1 UNK         0.0873 
     77 H77        28.6331   21.8087    1.3619 H         1 UNK         0.0745 
     78 H78        28.4259   20.4873    0.2445 H         1 UNK         0.0745 
     79 H79        30.0139   19.5316    2.6066 H         1 UNK         0.0705 
     80 H80        31.7093   19.9196    2.7232 H         1 UNK         0.0705 
     81 H81        32.3703   22.4065    3.1917 H         1 UNK         0.1334 
     82 H82        29.6965   24.3654    5.9113 H         1 UNK         0.1417 
     83 H83        28.4248   20.8505    3.8053 H         1 UNK         0.1562 
     84 H84        27.5998   22.2302    6.5596 H         1 UNK         0.0748 
     85 H85        26.7979   22.0902    5.0149 H         1 UNK         0.0748 
     86 H86        25.5772   25.4166    4.0106 H         1 UNK         0.0940 
     87 H87        26.4358   24.0219    3.4194 H         1 UNK         0.0940 
     88 H88        28.6054   25.3010    3.6125 H         1 UNK         0.0703 
     89 H89        28.2988   25.5874    1.4738 H         1 UNK         0.3081 
     90 H90        26.7307   25.9392   -0.5897 H         1 UNK         0.0719 
     91 H91        25.9467   28.8921   -0.3839 H         1 UNK         0.0809 
     92 H92        24.8398   27.5514   -0.6391 H         1 UNK         0.0809 
     93 H93        26.0247   27.9512   -1.8714 H         1 UNK         0.0809 
     94 H94        28.7467   26.7126   -1.0918 H         1 UNK         0.2990 
     95 H95        30.4046   28.8698   -1.4275 H         1 UNK         0.0690 
     96 H96        32.2268   29.6017    0.1240 H         1 UNK         0.0788 
     97 H97        31.2099   29.1992    1.5073 H         1 UNK         0.0788 
     98 H98        30.7450   30.4936    0.4161 H         1 UNK         0.0788 
     99 H99        31.5596   26.9607    0.5053 H         1 UNK         0.2993 
    100 H100       32.5035   24.7946   -1.8534 H         1 UNK         0.0949 
    101 H101       33.0701   23.9292    0.3969 H         1 UNK         0.0767 
    102 H102       33.2975   25.6654    0.3536 H         1 UNK         0.0767 
    103 H103       31.8768   24.9725    1.1469 H         1 UNK         0.0767 
    104 H104       31.0743   23.0985   -1.7972 H         1 UNK         0.3013 
    105 H105       29.4996   27.5082    3.1380 H         1 UNK         0.3121 
    106 H106       30.2105   29.4646    3.8307 H         1 UNK         0.0774 
    107 H107       30.3124   29.8367    6.2973 H         1 UNK         0.0815 
    108 H108       29.1163   28.5769    6.5474 H         1 UNK         0.0815 
    109 H109       30.7001   28.1749    5.8828 H         1 UNK         0.0815 
    110 H110       27.8897   29.8066    2.4393 H         1 UNK         0.2987 
    111 H111       26.0860   31.6397    3.8504 H         1 UNK         0.0949 
    112 H112       26.2654   30.8758    0.8879 H         1 UNK         0.0806 
    113 H113       25.2696   30.0479    2.0854 H         1 UNK         0.0806 
    114 H114       24.9340   31.7213    1.6639 H         1 UNK         0.0806 
    115 H115       29.0095   31.8744    2.0078 H         1 UNK         0.3010 
    116 H116       28.8344   34.8641    1.8669 H         1 UNK         0.0829 
    117 H117       28.7573   33.9445   -0.4216 H         1 UNK         0.0813 
    118 H118       30.3266   34.6747   -0.1504 H         1 UNK         0.0813 
    119 H119       30.1496   32.9180   -0.1227 H         1 UNK         0.0813 
    120 H120       31.7643   33.2778    1.0479 H         1 UNK         0.3038 
    121 H121       33.1850   34.0401    3.4772 H         1 UNK         0.0769 
    122 H122       34.3015   34.0177    1.2219 H         1 UNK         0.0811 
    123 H123       34.0065   32.2835    1.0853 H         1 UNK         0.0811 
    124 H124       35.0930   32.9006    2.3197 H         1 UNK         0.0811 
    125 H125       34.3198   32.4131    4.8129 H         1 UNK         0.3204 
    126 H126       32.5628   30.3064    5.7162 H         1 UNK         0.0748 
    127 H127       33.8393   31.7208    7.2962 H         1 UNK         0.0771 
    128 H128       34.2820   30.0345    7.4895 H         1 UNK         0.0771 
    129 H129       35.3645   31.1275    6.6371 H         1 UNK         0.0771 
    130 H130       32.8186   29.4701    3.3347 H         1 UNK         0.2980 
    131 H131       33.2824   27.8175    1.9481 H         1 UNK         0.0545 
    132 H132       36.9546   27.0766    1.2892 H         1 UNK         0.3459 
    133 H133       35.7108   25.9891    1.8443 H         1 UNK         0.3459 
    134 H134       34.0787   25.5640    2.7946 H         1 UNK         0.0616 
    135 H135       34.3704   26.2799    4.3603 H         1 UNK         0.0616 
    136 H136       32.1684   24.8180    5.9464 H         1 UNK         0.0634 
    137 H137       33.1989   24.0999    4.7357 H         1 UNK         0.0634 
@<TRIPOS>BOND
     1    1    2 1    
     2    1   72 1    
     3    1   73 1    
     4    1   74 1    
     5    2    3 2    
     6    2    4 am   BACKBONE|DICT|INTERRES
     7    4    5 1    
     8    4   75 1    
     9    5    6 1    
    10    5   35 1    
    11    5   76 1    
    12    6    7 1    
    13    6   77 1    
    14    6   78 1    
    15    7    8 1    
    16    8    9 1    
    17    8   79 1    
    18    8   80 1    
    19    9   10 ar   
    20    9   14 ar   
    21   10   11 ar   
    22   10   81 1    
    23   11   12 ar   
    24   11   71 1    
    25   12   13 ar   
    26   12   82 1    
    27   13   14 ar   
    28   13   15 1    
    29   14   83 1    
    30   15   16 1    
    31   15   84 1    
    32   15   85 1    
    33   16   17 1    
    34   17   18 1    
    35   17   86 1    
    36   17   87 1    
    37   18   19 1    
    38   18   37 1    
    39   18   88 1    
    40   19   20 am   BACKBONE|DICT|INTERRES
    41   19   89 1    
    42   20   21 2    
    43   20   22 1    
    44   22   23 1    
    45   22   24 1    
    46   22   90 1    
    47   23   91 1    
    48   23   92 1    
    49   23   93 1    
    50   24   25 am   BACKBONE|DICT|INTERRES
    51   24   94 1    
    52   25   26 2    
    53   25   27 1    
    54   27   28 1    
    55   27   29 1    
    56   27   95 1    
    57   28   96 1    
    58   28   97 1    
    59   28   98 1    
    60   29   30 am   BACKBONE|DICT|INTERRES
    61   29   99 1    
    62   30   31 2    
    63   30   32 1    
    64   32   33 1    
    65   32   34 1    
    66   32  100 1    
    67   33  101 1    
    68   33  102 1    
    69   33  103 1    
    70   34   35 am   BACKBONE|DICT|INTERRES
    71   34  104 1    
    72   35   36 2    
    73   37   38 2    
    74   37   39 am   BACKBONE|DICT|INTERRES
    75   39   40 1    
    76   39  105 1    
    77   40   41 1    
    78   40   42 1    
    79   40  106 1    
    80   41  107 1    
    81   41  108 1    
    82   41  109 1    
    83   42   43 2    
    84   42   44 am   BACKBONE|DICT|INTERRES
    85   44   45 1    
    86   44  110 1    
    87   45   46 1    
    88   45   47 1    
    89   45  111 1    
    90   46  112 1    
    91   46  113 1    
    92   46  114 1    
    93   47   48 2    
    94   47   49 am   BACKBONE|DICT|INTERRES
    95   49   50 1    
    96   49  115 1    
    97   50   51 1    
    98   50   52 1    
    99   50  116 1    
   100   51  117 1    
   101   51  118 1    
   102   51  119 1    
   103   52   53 2    
   104   52   54 am   BACKBONE|DICT|INTERRES
   105   54   55 1    
   106   54  120 1    
   107   55   56 1    
   108   55   57 1    
   109   55  121 1    
   110   56  122 1    
   111   56  123 1    
   112   56  124 1    
   113   57   58 2    
   114   57   59 am   BACKBONE|DICT|INTERRES
   115   59   60 1    
   116   59  125 1    
   117   60   61 1    
   118   60   62 1    
   119   60  126 1    
   120   61  127 1    
   121   61  128 1    
   122   61  129 1    
   123   62   63 2    
   124   62   64 am   BACKBONE|DICT|INTERRES
   125   64   65 1    
   126   64  130 1    
   127   65   66 1    
   128   65   69 1    
   129   65  131 1    
   130   66   67 am   BACKBONE|DICT|INTERRES
   131   66   68 2    
   132   67  132 1    
   133   67  133 1    
   134   69   70 1    
   135   69  134 1    
   136   69  135 1    
   137   70   71 1    
   138   71  136 1    
   139   71  137 1    
@<TRIPOS>SUBSTRUCTURE
     1 UNK         1 GROUP             0       ****    0 ROOT    
