@<TRIPOS>MOLECULE
3R136
137   139    1
SMALL
USER_CHARGES


@<TRIPOS>ATOM
      1 CA         34.2614   23.5034   -1.4419 C.3       0 UNK        -0.1979 
      2 C          33.0849   23.4391   -0.4796 C.2       0 UNK         0.4864 
      3 O          33.2820   23.5210    0.7324 O.2       0 UNK        -0.5359 
      4 N          31.8663   23.3006   -1.0105 N.am      1 UNK        -0.4318 
      5 CA         30.6102   23.2625   -0.2674 C.3       1 UNK         0.0824 
      6 C6         30.3557   21.8656    0.3603 C.3       12 UNK        -0.0944 
      7 S7         28.8605   21.7551    1.4080 S.3       12 UNK        -0.2672 
      8 C8         29.5415   21.8609    3.0927 C.3       12 UNK         0.0333 
      9 C9         29.6559   23.3022    3.5666 C.ar      12 UNK        -0.0807 
     10 C10        30.8040   24.0480    3.2890 C.ar      12 UNK        -0.0894 
     11 C11        30.9223   25.3663    3.7376 C.ar      12 UNK        -0.0804 
     12 C12        29.8872   25.9336    4.4876 C.ar      12 UNK        -0.0824 
     13 C13        28.7419   25.1901    4.7925 C.ar      12 UNK        -0.0762 
     14 C14        28.6260   23.8805    4.3157 C.ar      12 UNK        -0.0782 
     15 C15        27.6530   25.7748    5.6834 C.3       12 UNK         0.0230 
     16 S16        26.2546   26.4496    4.7333 S.3       12 UNK        -0.2608 
     17 C17        26.9831   27.9680    4.0317 C.3       12 UNK        -0.0989 
     18 CA         27.1489   27.8666    2.4911 C.3       5 UNK         0.0716 
     19 N          25.8749   27.6850    1.7754 N.am      5 UNK        -0.4135 
     20 C          24.8521   28.5556    1.7151 C.2       4 UNK         0.5031 
     21 O          24.8441   29.6364    2.3052 O.2       4 UNK        -0.5229 
     22 CA         23.6543   28.2092    0.8069 C.3       4 UNK         0.0329 
     23 CB         23.5155   29.2509   -0.3180 C.3       4 UNK        -0.2001 
     24 N          23.7508   26.8815    0.1978 N.am      4 UNK        -0.4303 
     25 C          23.3520   25.7393    0.7726 C.2       3 UNK         0.5044 
     26 O          22.7821   25.6796    1.8622 O.2       3 UNK        -0.5152 
     27 CA         23.6683   24.4385    0.0088 C.3       3 UNK         0.0319 
     28 CB         22.4698   24.0199   -0.8581 C.3       3 UNK        -0.2001 
     29 N          24.8747   24.5079   -0.8297 N.am      3 UNK        -0.4354 
     30 C          26.1103   24.7388   -0.3658 C.2       2 UNK         0.4964 
     31 O          26.3647   24.9850    0.8155 O.2       2 UNK        -0.5047 
     32 CA         27.2502   24.7552   -1.3863 C.3       2 UNK         0.0288 
     33 CB         27.4608   26.1701   -1.9572 C.3       2 UNK        -0.2113 
     34 N          28.4520   24.3197   -0.6881 N.am      2 UNK        -0.4145 
     35 C          29.5018   23.7047   -1.2372 C.2       1 UNK         0.5006 
     36 O          29.6213   23.4869   -2.4470 O.2       1 UNK        -0.5103 
     37 C          28.0087   29.0128    1.9048 C.2       5 UNK         0.5055 
     38 O          28.8888   29.5330    2.5897 O.2       5 UNK        -0.5220 
     39 N          27.7653   29.3690    0.6347 N.am      6 UNK        -0.4450 
     40 CA         28.4176   30.4658   -0.0882 C.3       6 UNK         0.0367 
     41 CB         27.5077   30.8837   -1.2568 C.3       6 UNK        -0.1929 
     42 C          29.8364   30.1371   -0.5935 C.2       6 UNK         0.5070 
     43 O          30.4803   31.0071   -1.1801 O.2       6 UNK        -0.5237 
     44 N          30.2980   28.8966   -0.3831 N.am      7 UNK        -0.4739 
     45 CA         31.6003   28.3873   -0.8237 C.3       7 UNK         0.0276 
     46 CB         31.6068   26.8581   -0.6767 C.3       7 UNK        -0.1927 
     47 C          32.8154   29.0112   -0.1083 C.2       7 UNK         0.5013 
     48 O          33.9312   28.8821   -0.6140 O.2       7 UNK        -0.5193 
     49 N          32.5949   29.6721    1.0336 N.am      8 UNK        -0.4253 
     50 CA         33.5996   30.4156    1.7876 C.3       8 UNK         0.0242 
     51 CB         34.2838   29.4798    2.8020 C.3       8 UNK        -0.2000 
     52 C          32.9064   31.5816    2.5005 C.2       8 UNK         0.4948 
     53 O          31.7020   31.5063    2.7535 O.2       8 UNK        -0.5275 
     54 N          33.6791   32.6209    2.8481 N.am      9 UNK        -0.4246 
     55 CA         33.2199   33.7405    3.6829 C.3       9 UNK         0.0261 
     56 CB         34.2504   34.8807    3.6365 C.3       9 UNK        -0.1959 
     57 C          32.9507   33.3053    5.1357 C.2       9 UNK         0.5033 
     58 O          31.9894   33.7706    5.7492 O.2       9 UNK        -0.5390 
     59 N          33.7873   32.3886    5.6312 N.am      10 UNK        -0.4215 
     60 CA         33.6146   31.6229    6.8563 C.3       10 UNK         0.0240 
     61 CB         34.2071   32.3796    8.0582 C.3       10 UNK        -0.1982 
     62 C          34.3316   30.2946    6.6060 C.2       10 UNK         0.4970 
     63 O          35.4982   30.3171    6.2063 O.2       10 UNK        -0.4916 
     64 N          33.6235   29.1758    6.7921 N.am      11 UNK        -0.4279 
     65 CA         34.1359   27.8236    6.5091 C.3       11 UNK         0.1003 
     66 C          35.0037   27.2079    7.6475 C.2       11 UNK         0.5709 
     67 N          35.1159   27.8370    8.8119 N.am      11 UNK        -0.7358 
     68 O          35.5982   26.1477    7.4695 O.2       11 UNK        -0.4999 
     69 C69        32.9933   26.8722    6.0489 C.3       12 UNK        -0.0954 
     70 S70        33.4951   25.8306    4.6358 S.3       12 UNK        -0.2268 
     71 C71        32.1800   26.1620    3.4214 C.3       12 UNK         0.0203 
     72 H72        33.9438   23.4159   -2.4808 H         1 UNK         0.0888 
     73 H73        34.9619   22.6955   -1.2321 H         1 UNK         0.0888 
     74 H74        34.7879   24.4505   -1.3265 H         1 UNK         0.0888 
     75 H75        31.7377   23.2680   -2.0153 H         1 UNK         0.3017 
     76 H76        30.6668   24.0101    0.5252 H         1 UNK         0.0873 
     77 H77        31.2205   21.5643    0.9527 H         1 UNK         0.0745 
     78 H78        30.2684   21.1138   -0.4264 H         1 UNK         0.0745 
     79 H79        28.8848   21.3051    3.7637 H         1 UNK         0.0705 
     80 H80        30.5102   21.3622    3.1464 H         1 UNK         0.0705 
     81 H81        31.6124   23.5993    2.7283 H         1 UNK         0.1334 
     82 H82        29.9830   26.9468    4.8516 H         1 UNK         0.1417 
     83 H83        27.7397   23.3046    4.5458 H         1 UNK         0.1562 
     84 H84        28.0618   26.5486    6.3352 H         1 UNK         0.0748 
     85 H85        27.2752   24.9966    6.3482 H         1 UNK         0.0748 
     86 H86        27.9405   28.1560    4.5187 H         1 UNK         0.0940 
     87 H87        26.3509   28.8152    4.3007 H         1 UNK         0.0940 
     88 H88        27.7259   26.9621    2.2907 H         1 UNK         0.0703 
     89 H89        25.7807   26.7839    1.3171 H         1 UNK         0.3081 
     90 H90        22.7556   28.2560    1.4258 H         1 UNK         0.0719 
     91 H91        24.3920   29.2681   -0.9670 H         1 UNK         0.0809 
     92 H92        22.6421   29.0497   -0.9387 H         1 UNK         0.0809 
     93 H93        23.3930   30.2556    0.0893 H         1 UNK         0.0809 
     94 H94        24.1891   26.8268   -0.7101 H         1 UNK         0.2990 
     95 H95        23.8354   23.6603    0.7567 H         1 UNK         0.0690 
     96 H96        22.6365   23.0488   -1.3248 H         1 UNK         0.0788 
     97 H97        22.2696   24.7442   -1.6487 H         1 UNK         0.0788 
     98 H98        21.5634   23.9356   -0.2566 H         1 UNK         0.0788 
     99 H99        24.7478   24.3332   -1.8169 H         1 UNK         0.2993 
    100 H100       27.0185   24.0545   -2.1917 H         1 UNK         0.0949 
    101 H101       27.7056   26.8887   -1.1746 H         1 UNK         0.0767 
    102 H102       28.2720   26.1850   -2.6854 H         1 UNK         0.0767 
    103 H103       26.5646   26.5274   -2.4660 H         1 UNK         0.0767 
    104 H104       28.3831   24.3912    0.3211 H         1 UNK         0.3013 
    105 H105       27.0319   28.8831    0.1418 H         1 UNK         0.3121 
    106 H106       28.5120   31.3158    0.5913 H         1 UNK         0.0774 
    107 H107       27.3817   30.0766   -1.9796 H         1 UNK         0.0815 
    108 H108       26.5190   31.1793   -0.9048 H         1 UNK         0.0815 
    109 H109       27.9244   31.7377   -1.7928 H         1 UNK         0.0815 
    110 H110       29.7044   28.2542    0.1186 H         1 UNK         0.2987 
    111 H111       31.7075   28.6257   -1.8842 H         1 UNK         0.0949 
    112 H112       30.8368   26.4019   -1.2982 H         1 UNK         0.0806 
    113 H113       32.5635   26.4396   -0.9921 H         1 UNK         0.0806 
    114 H114       31.4386   26.5485    0.3549 H         1 UNK         0.0806 
    115 H115       31.6451   29.7932    1.3665 H         1 UNK         0.3010 
    116 H116       34.3439   30.8237    1.1000 H         1 UNK         0.0829 
    117 H117       35.0797   29.9956    3.3401 H         1 UNK         0.0813 
    118 H118       34.7351   28.6183    2.3094 H         1 UNK         0.0813 
    119 H119       33.5778   29.1061    3.5445 H         1 UNK         0.0813 
    120 H120       34.6539   32.6190    2.5818 H         1 UNK         0.3038 
    121 H121       32.2803   34.1122    3.2680 H         1 UNK         0.0769 
    122 H122       34.3952   35.2433    2.6186 H         1 UNK         0.0811 
    123 H123       35.2211   34.5689    4.0241 H         1 UNK         0.0811 
    124 H124       33.9179   35.7291    4.2364 H         1 UNK         0.0811 
    125 H125       34.5545   32.0683    5.0546 H         1 UNK         0.3204 
    126 H126       32.5510   31.4406    7.0261 H         1 UNK         0.0748 
    127 H127       34.0949   31.8020    8.9765 H         1 UNK         0.0771 
    128 H128       35.2708   32.5812    7.9245 H         1 UNK         0.0771 
    129 H129       33.7035   33.3343    8.2113 H         1 UNK         0.0771 
    130 H130       32.6779   29.2338    7.1408 H         1 UNK         0.2980 
    131 H131       34.8260   27.9312    5.6697 H         1 UNK         0.0545 
    132 H132       34.6397   28.7097    8.9713 H         1 UNK         0.3459 
    133 H133       35.6854   27.4317    9.5380 H         1 UNK         0.3459 
    134 H134       32.1209   27.4519    5.7470 H         1 UNK         0.0616 
    135 H135       32.6451   26.2291    6.8595 H         1 UNK         0.0616 
    136 H136       31.9647   27.2306    3.3750 H         1 UNK         0.0634 
    137 H137       32.5489   25.8837    2.4331 H         1 UNK         0.0634 
@<TRIPOS>BOND
     1    1    2 1    
     2    1   72 1    
     3    1   73 1    
     4    1   74 1    
     5    2    3 2    
     6    2    4 am   BACKBONE|DICT|INTERRES
     7    4    5 1    
     8    4   75 1    
     9    5    6 1    
    10    5   35 1    
    11    5   76 1    
    12    6    7 1    
    13    6   77 1    
    14    6   78 1    
    15    7    8 1    
    16    8    9 1    
    17    8   79 1    
    18    8   80 1    
    19    9   10 ar   
    20    9   14 ar   
    21   10   11 ar   
    22   10   81 1    
    23   11   12 ar   
    24   11   71 1    
    25   12   13 ar   
    26   12   82 1    
    27   13   14 ar   
    28   13   15 1    
    29   14   83 1    
    30   15   16 1    
    31   15   84 1    
    32   15   85 1    
    33   16   17 1    
    34   17   18 1    
    35   17   86 1    
    36   17   87 1    
    37   18   19 1    
    38   18   37 1    
    39   18   88 1    
    40   19   20 am   BACKBONE|DICT|INTERRES
    41   19   89 1    
    42   20   21 2    
    43   20   22 1    
    44   22   23 1    
    45   22   24 1    
    46   22   90 1    
    47   23   91 1    
    48   23   92 1    
    49   23   93 1    
    50   24   25 am   BACKBONE|DICT|INTERRES
    51   24   94 1    
    52   25   26 2    
    53   25   27 1    
    54   27   28 1    
    55   27   29 1    
    56   27   95 1    
    57   28   96 1    
    58   28   97 1    
    59   28   98 1    
    60   29   30 am   BACKBONE|DICT|INTERRES
    61   29   99 1    
    62   30   31 2    
    63   30   32 1    
    64   32   33 1    
    65   32   34 1    
    66   32  100 1    
    67   33  101 1    
    68   33  102 1    
    69   33  103 1    
    70   34   35 am   BACKBONE|DICT|INTERRES
    71   34  104 1    
    72   35   36 2    
    73   37   38 2    
    74   37   39 am   BACKBONE|DICT|INTERRES
    75   39   40 1    
    76   39  105 1    
    77   40   41 1    
    78   40   42 1    
    79   40  106 1    
    80   41  107 1    
    81   41  108 1    
    82   41  109 1    
    83   42   43 2    
    84   42   44 am   BACKBONE|DICT|INTERRES
    85   44   45 1    
    86   44  110 1    
    87   45   46 1    
    88   45   47 1    
    89   45  111 1    
    90   46  112 1    
    91   46  113 1    
    92   46  114 1    
    93   47   48 2    
    94   47   49 am   BACKBONE|DICT|INTERRES
    95   49   50 1    
    96   49  115 1    
    97   50   51 1    
    98   50   52 1    
    99   50  116 1    
   100   51  117 1    
   101   51  118 1    
   102   51  119 1    
   103   52   53 2    
   104   52   54 am   BACKBONE|DICT|INTERRES
   105   54   55 1    
   106   54  120 1    
   107   55   56 1    
   108   55   57 1    
   109   55  121 1    
   110   56  122 1    
   111   56  123 1    
   112   56  124 1    
   113   57   58 2    
   114   57   59 am   BACKBONE|DICT|INTERRES
   115   59   60 1    
   116   59  125 1    
   117   60   61 1    
   118   60   62 1    
   119   60  126 1    
   120   61  127 1    
   121   61  128 1    
   122   61  129 1    
   123   62   63 2    
   124   62   64 am   BACKBONE|DICT|INTERRES
   125   64   65 1    
   126   64  130 1    
   127   65   66 1    
   128   65   69 1    
   129   65  131 1    
   130   66   67 am   BACKBONE|DICT|INTERRES
   131   66   68 2    
   132   67  132 1    
   133   67  133 1    
   134   69   70 1    
   135   69  134 1    
   136   69  135 1    
   137   70   71 1    
   138   71  136 1    
   139   71  137 1    
@<TRIPOS>SUBSTRUCTURE
     1 UNK         1 GROUP             0       ****    0 ROOT    
