@<TRIPOS>MOLECULE
3R136
137   139    1
SMALL
USER_CHARGES


@<TRIPOS>ATOM
      1 CA         32.7838   25.4771   -0.7682 C.3       0 UNK        -0.1979 
      2 C          31.7135   26.1546    0.0800 C.2       0 UNK         0.4864 
      3 O          31.6972   27.3797    0.1303 O.2       0 UNK        -0.5359 
      4 N          30.8018   25.4471    0.7633 N.am      1 UNK        -0.4318 
      5 CA         30.4754   24.0173    0.7655 C.3       1 UNK         0.0824 
      6 C6         31.6766   23.0408    0.9162 C.3       12 UNK        -0.0944 
      7 S7         31.1525   21.3419    1.3244 S.3       12 UNK        -0.2672 
      8 C8         31.5438   21.2316    3.1000 C.3       12 UNK         0.0333 
      9 C9         30.6584   22.1394    3.9418 C.ar      12 UNK        -0.0807 
     10 C10        31.2176   23.1872    4.6776 C.ar      12 UNK        -0.0894 
     11 C11        30.4076   24.0257    5.4505 C.ar      12 UNK        -0.0804 
     12 C12        29.0300   23.7963    5.5008 C.ar      12 UNK        -0.0824 
     13 C13        28.4586   22.7540    4.7640 C.ar      12 UNK        -0.0762 
     14 C14        29.2782   21.9261    3.9919 C.ar      12 UNK        -0.0782 
     15 C15        26.9576   22.5150    4.7927 C.3       12 UNK         0.0230 
     16 S16        26.1056   23.4984    3.5192 S.3       12 UNK        -0.2608 
     17 C17        25.9785   25.1253    4.3346 C.3       12 UNK        -0.0989 
     18 CA         26.9066   26.1996    3.7072 C.3       5 UNK         0.0716 
     19 N          26.5381   26.4790    2.3183 N.am      5 UNK        -0.4135 
     20 C          27.3795   26.9122    1.3761 C.2       4 UNK         0.5031 
     21 O          28.5956   27.0340    1.5436 O.2       4 UNK        -0.5229 
     22 CA         26.7460   27.3440    0.0504 C.3       4 UNK         0.0329 
     23 CB         26.2338   28.7948    0.1590 C.3       4 UNK        -0.2001 
     24 N          27.7423   27.2209   -1.0098 N.am      4 UNK        -0.4303 
     25 C          27.5001   27.2744   -2.3254 C.2       3 UNK         0.5044 
     26 O          26.3927   27.4976   -2.8161 O.2       3 UNK        -0.5152 
     27 CA         28.6953   26.9974   -3.2531 C.3       3 UNK         0.0319 
     28 CB         29.7887   28.0696   -3.1012 C.3       3 UNK        -0.2001 
     29 N          29.2610   25.6692   -3.0100 N.am      3 UNK        -0.4354 
     30 C          28.6584   24.5121   -3.3281 C.2       2 UNK         0.4964 
     31 O          27.6143   24.4372   -3.9765 O.2       2 UNK        -0.5047 
     32 CA         29.3237   23.2127   -2.8305 C.3       2 UNK         0.0288 
     33 CB         30.2628   22.6416   -3.9054 C.3       2 UNK        -0.2113 
     34 N          30.0669   23.3718   -1.5756 N.am      2 UNK        -0.4145 
     35 C          29.5202   23.7390   -0.4068 C.2       1 UNK         0.5006 
     36 O          28.3125   23.9193   -0.2471 O.2       1 UNK        -0.5103 
     37 C          26.8480   27.5254    4.4940 C.2       5 UNK         0.5055 
     38 O          25.9150   27.7249    5.2759 O.2       5 UNK        -0.5220 
     39 N          27.7918   28.4388    4.2338 N.am      6 UNK        -0.4450 
     40 CA         27.7955   29.7839    4.8007 C.3       6 UNK         0.0367 
     41 CB         27.0215   30.7319    3.8657 C.3       6 UNK        -0.1929 
     42 C          29.2253   30.2875    5.0001 C.2       6 UNK         0.5070 
     43 O          30.0989   30.0224    4.1703 O.2       6 UNK        -0.5237 
     44 N          29.4134   31.0934    6.0532 N.am      7 UNK        -0.4739 
     45 CA         30.6494   31.8341    6.3244 C.3       7 UNK         0.0276 
     46 CB         30.5885   32.4373    7.7363 C.3       7 UNK        -0.1927 
     47 C          30.9239   32.9290    5.2787 C.2       7 UNK         0.5013 
     48 O          32.0870   33.2202    5.0067 O.2       7 UNK        -0.5193 
     49 N          29.8576   33.4681    4.6676 N.am      8 UNK        -0.4253 
     50 CA         29.9140   34.4031    3.5392 C.3       8 UNK         0.0242 
     51 CB         28.5067   34.9595    3.2686 C.3       8 UNK        -0.2000 
     52 C          30.5006   33.7770    2.2596 C.2       8 UNK         0.4948 
     53 O          31.1460   34.4848    1.4862 O.2       8 UNK        -0.5275 
     54 N          30.2921   32.4648    2.0737 N.am      9 UNK        -0.4246 
     55 CA         30.9126   31.6670    1.0117 C.3       9 UNK         0.0261 
     56 CB         29.9931   30.4811    0.6710 C.3       9 UNK        -0.1959 
     57 C          32.3213   31.1724    1.3955 C.2       9 UNK         0.5033 
     58 O          33.0472   30.7057    0.5174 O.2       9 UNK        -0.5390 
     59 N          32.6781   31.2918    2.6848 N.am      10 UNK        -0.4215 
     60 CA         33.9037   30.8237    3.3360 C.3       10 UNK         0.0240 
     61 CB         35.1398   31.5834    2.8079 C.3       10 UNK        -0.1982 
     62 C          34.0410   29.2938    3.2577 C.2       10 UNK         0.4970 
     63 O          35.0817   28.7912    2.8286 O.2       10 UNK        -0.4916 
     64 N          32.9778   28.5835    3.6638 N.am      11 UNK        -0.4279 
     65 CA         32.9015   27.1157    3.6114 C.3       11 UNK         0.1003 
     66 C          33.9177   26.3413    4.5010 C.2       11 UNK         0.5709 
     67 N          34.5050   26.9523    5.5234 N.am      11 UNK        -0.7358 
     68 O          34.1838   25.1689    4.2494 O.2       11 UNK        -0.4999 
     69 C69        31.4477   26.6069    3.7867 C.3       12 UNK        -0.0954 
     70 S70        30.7286   26.8031    5.4562 S.3       12 UNK        -0.2268 
     71 C71        31.0250   25.1775    6.2322 C.3       12 UNK         0.0203 
     72 H72        33.3426   26.2256   -1.3302 H         1 UNK         0.0888 
     73 H73        33.4985   24.9516   -0.1359 H         1 UNK         0.0888 
     74 H74        32.3600   24.7869   -1.4925 H         1 UNK         0.0888 
     75 H75        30.1013   26.0051    1.2499 H         1 UNK         0.3017 
     76 H76        29.8697   23.8935    1.6658 H         1 UNK         0.0873 
     77 H77        32.2758   22.9752    0.0098 H         1 UNK         0.0745 
     78 H78        32.3487   23.4019    1.6965 H         1 UNK         0.0745 
     79 H79        32.6002   21.4598    3.2508 H         1 UNK         0.0705 
     80 H80        31.4043   20.2002    3.4268 H         1 UNK         0.0705 
     81 H81        32.2846   23.3588    4.6405 H         1 UNK         0.1334 
     82 H82        28.4048   24.4406    6.1029 H         1 UNK         0.1417 
     83 H83        28.8417   21.1196    3.4181 H         1 UNK         0.1562 
     84 H84        26.5505   22.7342    5.7809 H         1 UNK         0.0748 
     85 H85        26.7482   21.4594    4.6125 H         1 UNK         0.0748 
     86 H86        26.1890   25.0134    5.3993 H         1 UNK         0.0940 
     87 H87        24.9347   25.4409    4.2777 H         1 UNK         0.0940 
     88 H88        27.9348   25.8325    3.7485 H         1 UNK         0.0703 
     89 H89        25.5527   26.4253    2.1062 H         1 UNK         0.3081 
     90 H90        25.9148   26.6728   -0.1758 H         1 UNK         0.0719 
     91 H91        27.0473   29.4914    0.3595 H         1 UNK         0.0809 
     92 H92        25.7348   29.1180   -0.7542 H         1 UNK         0.0809 
     93 H93        25.5116   28.8985    0.9699 H         1 UNK         0.0809 
     94 H94        28.6773   27.0302   -0.6733 H         1 UNK         0.2990 
     95 H95        28.3344   27.0318   -4.2836 H         1 UNK         0.0690 
     96 H96        30.5936   27.9176   -3.8206 H         1 UNK         0.0788 
     97 H97        30.2296   28.0721   -2.1039 H         1 UNK         0.0788 
     98 H98        29.3823   29.0663   -3.2782 H         1 UNK         0.0788 
     99 H99        30.1271   25.6308   -2.4967 H         1 UNK         0.2993 
    100 H100       28.5252   22.4891   -2.6514 H         1 UNK         0.0949 
    101 H101       30.6703   21.6760   -3.6049 H         1 UNK         0.0767 
    102 H102       29.7307   22.4872   -4.8454 H         1 UNK         0.0767 
    103 H103       31.0988   23.3116   -4.1109 H         1 UNK         0.0767 
    104 H104       31.0585   23.1911   -1.6157 H         1 UNK         0.3013 
    105 H105       28.5540   28.2201    3.6011 H         1 UNK         0.3121 
    106 H106       27.3076   29.7707    5.7781 H         1 UNK         0.0774 
    107 H107       27.0038   31.7493    4.2577 H         1 UNK         0.0815 
    108 H108       27.4674   30.7688    2.8708 H         1 UNK         0.0815 
    109 H109       25.9847   30.4149    3.7522 H         1 UNK         0.0815 
    110 H110       28.6430   31.2552    6.6871 H         1 UNK         0.2987 
    111 H111       31.4820   31.1277    6.2872 H         1 UNK         0.0949 
    112 H112       29.7638   33.1434    7.8415 H         1 UNK         0.0806 
    113 H113       30.4672   31.6626    8.4938 H         1 UNK         0.0806 
    114 H114       31.5089   32.9745    7.9702 H         1 UNK         0.0806 
    115 H115       28.9407   33.1832    4.9783 H         1 UNK         0.3010 
    116 H116       30.5633   35.2334    3.8257 H         1 UNK         0.0829 
    117 H117       28.1088   35.4764    4.1421 H         1 UNK         0.0813 
    118 H118       28.5239   35.6797    2.4493 H         1 UNK         0.0813 
    119 H119       27.8042   34.1715    2.9940 H         1 UNK         0.0813 
    120 H120       29.7654   31.9505    2.7658 H         1 UNK         0.3038 
    121 H121       31.0154   32.2817    0.1148 H         1 UNK         0.0769 
    122 H122       30.4086   29.8885   -0.1452 H         1 UNK         0.0811 
    123 H123       29.0097   30.8242    0.3522 H         1 UNK         0.0811 
    124 H124       29.8609   29.8066    1.5179 H         1 UNK         0.0811 
    125 H125       32.0077   31.7201    3.3081 H         1 UNK         0.3204 
    126 H126       33.8006   31.0666    4.3945 H         1 UNK         0.0748 
    127 H127       36.0338   31.3105    3.3699 H         1 UNK         0.0771 
    128 H128       35.3369   31.3633    1.7583 H         1 UNK         0.0771 
    129 H129       35.0118   32.6614    2.9064 H         1 UNK         0.0771 
    130 H130       32.1399   29.0615    3.9733 H         1 UNK         0.2980 
    131 H131       33.1848   26.8563    2.5900 H         1 UNK         0.0545 
    132 H132       35.1677   26.4448    6.0875 H         1 UNK         0.3459 
    133 H133       34.2868   27.9114    5.7382 H         1 UNK         0.3459 
    134 H134       30.7993   27.1513    3.0995 H         1 UNK         0.0616 
    135 H135       31.3803   25.5676    3.4721 H         1 UNK         0.0616 
    136 H136       32.0975   25.0256    6.3575 H         1 UNK         0.0634 
    137 H137       30.6062   25.1932    7.2392 H         1 UNK         0.0634 
@<TRIPOS>BOND
     1    1    2 1    
     2    1   72 1    
     3    1   73 1    
     4    1   74 1    
     5    2    3 2    
     6    2    4 am   BACKBONE|DICT|INTERRES
     7    4    5 1    
     8    4   75 1    
     9    5    6 1    
    10    5   35 1    
    11    5   76 1    
    12    6    7 1    
    13    6   77 1    
    14    6   78 1    
    15    7    8 1    
    16    8    9 1    
    17    8   79 1    
    18    8   80 1    
    19    9   10 ar   
    20    9   14 ar   
    21   10   11 ar   
    22   10   81 1    
    23   11   12 ar   
    24   11   71 1    
    25   12   13 ar   
    26   12   82 1    
    27   13   14 ar   
    28   13   15 1    
    29   14   83 1    
    30   15   16 1    
    31   15   84 1    
    32   15   85 1    
    33   16   17 1    
    34   17   18 1    
    35   17   86 1    
    36   17   87 1    
    37   18   19 1    
    38   18   37 1    
    39   18   88 1    
    40   19   20 am   BACKBONE|DICT|INTERRES
    41   19   89 1    
    42   20   21 2    
    43   20   22 1    
    44   22   23 1    
    45   22   24 1    
    46   22   90 1    
    47   23   91 1    
    48   23   92 1    
    49   23   93 1    
    50   24   25 am   BACKBONE|DICT|INTERRES
    51   24   94 1    
    52   25   26 2    
    53   25   27 1    
    54   27   28 1    
    55   27   29 1    
    56   27   95 1    
    57   28   96 1    
    58   28   97 1    
    59   28   98 1    
    60   29   30 am   BACKBONE|DICT|INTERRES
    61   29   99 1    
    62   30   31 2    
    63   30   32 1    
    64   32   33 1    
    65   32   34 1    
    66   32  100 1    
    67   33  101 1    
    68   33  102 1    
    69   33  103 1    
    70   34   35 am   BACKBONE|DICT|INTERRES
    71   34  104 1    
    72   35   36 2    
    73   37   38 2    
    74   37   39 am   BACKBONE|DICT|INTERRES
    75   39   40 1    
    76   39  105 1    
    77   40   41 1    
    78   40   42 1    
    79   40  106 1    
    80   41  107 1    
    81   41  108 1    
    82   41  109 1    
    83   42   43 2    
    84   42   44 am   BACKBONE|DICT|INTERRES
    85   44   45 1    
    86   44  110 1    
    87   45   46 1    
    88   45   47 1    
    89   45  111 1    
    90   46  112 1    
    91   46  113 1    
    92   46  114 1    
    93   47   48 2    
    94   47   49 am   BACKBONE|DICT|INTERRES
    95   49   50 1    
    96   49  115 1    
    97   50   51 1    
    98   50   52 1    
    99   50  116 1    
   100   51  117 1    
   101   51  118 1    
   102   51  119 1    
   103   52   53 2    
   104   52   54 am   BACKBONE|DICT|INTERRES
   105   54   55 1    
   106   54  120 1    
   107   55   56 1    
   108   55   57 1    
   109   55  121 1    
   110   56  122 1    
   111   56  123 1    
   112   56  124 1    
   113   57   58 2    
   114   57   59 am   BACKBONE|DICT|INTERRES
   115   59   60 1    
   116   59  125 1    
   117   60   61 1    
   118   60   62 1    
   119   60  126 1    
   120   61  127 1    
   121   61  128 1    
   122   61  129 1    
   123   62   63 2    
   124   62   64 am   BACKBONE|DICT|INTERRES
   125   64   65 1    
   126   64  130 1    
   127   65   66 1    
   128   65   69 1    
   129   65  131 1    
   130   66   67 am   BACKBONE|DICT|INTERRES
   131   66   68 2    
   132   67  132 1    
   133   67  133 1    
   134   69   70 1    
   135   69  134 1    
   136   69  135 1    
   137   70   71 1    
   138   71  136 1    
   139   71  137 1    
@<TRIPOS>SUBSTRUCTURE
     1 UNK         1 GROUP             0       ****    0 ROOT    
