@<TRIPOS>MOLECULE
3R136
137   139    1
SMALL
USER_CHARGES


@<TRIPOS>ATOM
      1 CA         28.6695   28.1428   -1.9685 C.3       0 UNK        -0.1979 
      2 C          28.4385   26.8970   -1.1281 C.2       0 UNK         0.4864 
      3 O          27.3735   26.7636   -0.5182 O.2       0 UNK        -0.5359 
      4 N          29.4277   25.9914   -1.0926 N.am      1 UNK        -0.4318 
      5 CA         29.4297   24.7312   -0.3376 C.3       1 UNK         0.0824 
      6 C6         30.7444   23.9320   -0.5215 C.3       12 UNK        -0.0944 
      7 S7         32.2242   24.8648   -0.0112 S.3       12 UNK        -0.2672 
      8 C8         32.7349   23.9625    1.4838 C.3       12 UNK         0.0333 
      9 C9         31.9341   24.3889    2.7047 C.ar      12 UNK        -0.0807 
     10 C10        32.3320   25.5158    3.4293 C.ar      12 UNK        -0.0894 
     11 C11        31.6392   25.9021    4.5786 C.ar      12 UNK        -0.0804 
     12 C12        30.5432   25.1486    5.0060 C.ar      12 UNK        -0.0824 
     13 C13        30.1354   24.0158    4.2938 C.ar      12 UNK        -0.0762 
     14 C14        30.8311   23.6437    3.1379 C.ar      12 UNK        -0.0782 
     15 C15        28.9820   23.1644    4.8127 C.3       12 UNK         0.0230 
     16 S16        27.4282   23.4222    3.8966 S.3       12 UNK        -0.2608 
     17 C17        27.0883   25.1909    4.1911 C.3       12 UNK        -0.0989 
     18 CA         27.1158   25.9767    2.8531 C.3       5 UNK         0.0716 
     19 N          25.9883   25.6519    1.9610 N.am      5 UNK        -0.4135 
     20 C          24.7080   25.9992    2.1751 C.2       4 UNK         0.5031 
     21 O          24.3163   26.5047    3.2289 O.2       4 UNK        -0.5229 
     22 CA         23.6951   25.8049    1.0316 C.3       4 UNK         0.0329 
     23 CB         22.5782   26.8767    1.0887 C.3       4 UNK        -0.2001 
     24 N          24.3309   25.8002   -0.2920 N.am      4 UNK        -0.4303 
     25 C          23.7180   25.4078   -1.4184 C.2       3 UNK         0.5044 
     26 O          22.5674   24.9698   -1.4639 O.2       3 UNK        -0.5152 
     27 CA         24.5312   25.5026   -2.7176 C.3       3 UNK         0.0319 
     28 CB         24.9024   26.9579   -3.0537 C.3       3 UNK        -0.2001 
     29 N          25.7322   24.6721   -2.6536 N.am      3 UNK        -0.4354 
     30 C          25.7253   23.3300   -2.6643 C.2       2 UNK         0.4964 
     31 O          24.7064   22.6511   -2.7971 O.2       2 UNK        -0.5047 
     32 CA         27.0772   22.6098   -2.5192 C.3       2 UNK         0.0288 
     33 CB         27.5378   22.0501   -3.8758 C.3       2 UNK        -0.2113 
     34 N          28.1407   23.4513   -1.9677 N.am      2 UNK        -0.4145 
     35 C          28.2158   23.8523   -0.6908 C.2       1 UNK         0.5006 
     36 O          27.3675   23.5995    0.1656 O.2       1 UNK        -0.5103 
     37 C          27.2720   27.5070    3.0212 C.2       5 UNK         0.5055 
     38 O          27.5134   28.0052    4.1217 O.2       5 UNK        -0.5220 
     39 N          27.1245   28.2232    1.8991 N.am      6 UNK        -0.4450 
     40 CA         27.1365   29.6828    1.7925 C.3       6 UNK         0.0367 
     41 CB         26.0873   30.0948    0.7436 C.3       6 UNK        -0.1929 
     42 C          28.5307   30.2357    1.4415 C.2       6 UNK         0.5070 
     43 O          28.6407   31.3933    1.0379 O.2       6 UNK        -0.5237 
     44 N          29.5727   29.4040    1.5806 N.am      7 UNK        -0.4739 
     45 CA         30.9638   29.7165    1.2393 C.3       7 UNK         0.0276 
     46 CB         31.7487   28.4025    1.1425 C.3       7 UNK        -0.1927 
     47 C          31.6521   30.7107    2.1967 C.2       7 UNK         0.5013 
     48 O          32.7360   31.1929    1.8645 O.2       7 UNK        -0.5193 
     49 N          31.0136   31.0048    3.3419 N.am      8 UNK        -0.4253 
     50 CA         31.3083   32.0754    4.3039 C.3       8 UNK         0.0242 
     51 CB         30.8055   33.4259    3.7478 C.3       8 UNK        -0.2000 
     52 C          32.7794   32.1171    4.7526 C.2       8 UNK         0.4948 
     53 O          33.1581   31.3594    5.6466 O.2       8 UNK        -0.5275 
     54 N          33.5860   32.9719    4.1061 N.am      9 UNK        -0.4246 
     55 CA         35.0224   33.1680    4.3320 C.3       9 UNK         0.0261 
     56 CB         35.5257   34.2835    3.4014 C.3       9 UNK        -0.1959 
     57 C          35.8887   31.9031    4.1727 C.2       9 UNK         0.5033 
     58 O          37.0055   31.8819    4.6918 O.2       9 UNK        -0.5390 
     59 N          35.3654   30.8667    3.4993 N.am      10 UNK        -0.4215 
     60 CA         35.9491   29.5216    3.4645 C.3       10 UNK         0.0240 
     61 CB         35.1565   28.6483    2.4813 C.3       10 UNK        -0.1982 
     62 C          36.0050   28.8429    4.8488 C.2       10 UNK         0.4970 
     63 O          36.9161   28.0482    5.0838 O.2       10 UNK        -0.4916 
     64 N          35.0496   29.1723    5.7279 N.am      11 UNK        -0.4279 
     65 CA         35.0047   28.7445    7.1327 C.3       11 UNK         0.1003 
     66 C          35.3861   29.9023    8.0921 C.2       11 UNK         0.5709 
     67 N          34.9757   31.1363    7.8242 N.am      11 UNK        -0.7358 
     68 O          36.0693   29.6787    9.0885 O.2       11 UNK        -0.4999 
     69 C69        33.6173   28.1661    7.5085 C.3       12 UNK        -0.0954 
     70 S70        33.2800   26.5888    6.6635 S.3       12 UNK        -0.2268 
     71 C71        32.0989   27.1063    5.3834 C.3       12 UNK         0.0203 
     72 H72        28.5883   29.0350   -1.3497 H         1 UNK         0.0888 
     73 H73        29.6552   28.1439   -2.4333 H         1 UNK         0.0888 
     74 H74        27.9218   28.2068   -2.7581 H         1 UNK         0.0888 
     75 H75        30.2784   26.1768   -1.6052 H         1 UNK         0.3017 
     76 H76        29.3520   24.9883    0.7180 H         1 UNK         0.0873 
     77 H77        30.8868   23.6510   -1.5665 H         1 UNK         0.0745 
     78 H78        30.7002   22.9937    0.0344 H         1 UNK         0.0745 
     79 H79        32.6569   22.8864    1.3220 H         1 UNK         0.0705 
     80 H80        33.7936   24.1596    1.6598 H         1 UNK         0.0705 
     81 H81        33.1943   26.0831    3.1064 H         1 UNK         0.1334 
     82 H82        30.0237   25.4334    5.9109 H         1 UNK         0.1417 
     83 H83        30.5257   22.7618    2.5914 H         1 UNK         0.1562 
     84 H84        28.8059   23.3604    5.8717 H         1 UNK         0.0748 
     85 H85        29.2549   22.1103    4.7454 H         1 UNK         0.0748 
     86 H86        27.8203   25.5827    4.8966 H         1 UNK         0.0940 
     87 H87        26.1237   25.2907    4.6900 H         1 UNK         0.0940 
     88 H88        28.0177   25.6743    2.3246 H         1 UNK         0.0703 
     89 H89        26.2423   25.1586    1.1124 H         1 UNK         0.3081 
     90 H90        23.2422   24.8244    1.1919 H         1 UNK         0.0719 
     91 H91        21.8091   26.7136    0.3347 H         1 UNK         0.0809 
     92 H92        22.9821   27.8789    0.9411 H         1 UNK         0.0809 
     93 H93        22.0675   26.8689    2.0525 H         1 UNK         0.0809 
     94 H94        25.2809   26.1510   -0.3501 H         1 UNK         0.2990 
     95 H95        23.9057   25.1270   -3.5306 H         1 UNK         0.0690 
     96 H96        25.4448   27.0204   -3.9972 H         1 UNK         0.0788 
     97 H97        25.5180   27.4195   -2.2826 H         1 UNK         0.0788 
     98 H98        24.0053   27.5699   -3.1570 H         1 UNK         0.0788 
     99 H99        26.6115   25.1477   -2.5184 H         1 UNK         0.2993 
    100 H100       26.9213   21.7710   -1.8369 H         1 UNK         0.0949 
    101 H101       28.4549   21.4691   -3.7752 H         1 UNK         0.0767 
    102 H102       26.7831   21.3874   -4.3020 H         1 UNK         0.0767 
    103 H103       27.7196   22.8450   -4.6004 H         1 UNK         0.0767 
    104 H104       28.8686   23.7353   -2.6074 H         1 UNK         0.3013 
    105 H105       27.0151   27.7135    1.0239 H         1 UNK         0.3121 
    106 H106       26.8492   30.1205    2.7508 H         1 UNK         0.0774 
    107 H107       26.0104   31.1801    0.6661 H         1 UNK         0.0815 
    108 H108       26.3348   29.7122   -0.2473 H         1 UNK         0.0815 
    109 H109       25.0975   29.7217    1.0077 H         1 UNK         0.0815 
    110 H110       29.3891   28.4764    1.9330 H         1 UNK         0.2987 
    111 H111       30.9663   30.1832    0.2517 H         1 UNK         0.0949 
    112 H112       31.8145   27.9057    2.1091 H         1 UNK         0.0806 
    113 H113       31.2812   27.7122    0.4415 H         1 UNK         0.0806 
    114 H114       32.7636   28.5774    0.7853 H         1 UNK         0.0806 
    115 H115       30.1611   30.4933    3.5194 H         1 UNK         0.3010 
    116 H116       30.7274   31.8546    5.2009 H         1 UNK         0.0829 
    117 H117       29.7242   33.4091    3.6089 H         1 UNK         0.0813 
    118 H118       31.0258   34.2448    4.4344 H         1 UNK         0.0813 
    119 H119       31.2506   33.6696    2.7825 H         1 UNK         0.0813 
    120 H120       33.1792   33.5072    3.3527 H         1 UNK         0.3038 
    121 H121       35.1415   33.5033    5.3643 H         1 UNK         0.0769 
    122 H122       36.5864   34.4806    3.5641 H         1 UNK         0.0811 
    123 H123       34.9951   35.2194    3.5779 H         1 UNK         0.0811 
    124 H124       35.4012   34.0178    2.3508 H         1 UNK         0.0811 
    125 H125       34.4614   30.9914    3.0539 H         1 UNK         0.3204 
    126 H126       36.9735   29.6123    3.0974 H         1 UNK         0.0748 
    127 H127       35.6016   27.6564    2.3911 H         1 UNK         0.0771 
    128 H128       34.1274   28.5149    2.8133 H         1 UNK         0.0771 
    129 H129       35.1374   29.0883    1.4840 H         1 UNK         0.0771 
    130 H130       34.3646   29.8764    5.4729 H         1 UNK         0.2980 
    131 H131       35.7419   27.9567    7.2993 H         1 UNK         0.0545 
    132 H132       34.3523   31.3102    7.0408 H         1 UNK         0.3459 
    133 H133       35.2287   31.8867    8.4463 H         1 UNK         0.3459 
    134 H134       32.8241   28.8845    7.2925 H         1 UNK         0.0616 
    135 H135       33.5634   27.9673    8.5806 H         1 UNK         0.0616 
    136 H136       31.2425   27.5959    5.8499 H         1 UNK         0.0634 
    137 H137       32.5657   27.8465    4.7320 H         1 UNK         0.0634 
@<TRIPOS>BOND
     1    1    2 1    
     2    1   72 1    
     3    1   73 1    
     4    1   74 1    
     5    2    3 2    
     6    2    4 am   BACKBONE|DICT|INTERRES
     7    4    5 1    
     8    4   75 1    
     9    5    6 1    
    10    5   35 1    
    11    5   76 1    
    12    6    7 1    
    13    6   77 1    
    14    6   78 1    
    15    7    8 1    
    16    8    9 1    
    17    8   79 1    
    18    8   80 1    
    19    9   10 ar   
    20    9   14 ar   
    21   10   11 ar   
    22   10   81 1    
    23   11   12 ar   
    24   11   71 1    
    25   12   13 ar   
    26   12   82 1    
    27   13   14 ar   
    28   13   15 1    
    29   14   83 1    
    30   15   16 1    
    31   15   84 1    
    32   15   85 1    
    33   16   17 1    
    34   17   18 1    
    35   17   86 1    
    36   17   87 1    
    37   18   19 1    
    38   18   37 1    
    39   18   88 1    
    40   19   20 am   BACKBONE|DICT|INTERRES
    41   19   89 1    
    42   20   21 2    
    43   20   22 1    
    44   22   23 1    
    45   22   24 1    
    46   22   90 1    
    47   23   91 1    
    48   23   92 1    
    49   23   93 1    
    50   24   25 am   BACKBONE|DICT|INTERRES
    51   24   94 1    
    52   25   26 2    
    53   25   27 1    
    54   27   28 1    
    55   27   29 1    
    56   27   95 1    
    57   28   96 1    
    58   28   97 1    
    59   28   98 1    
    60   29   30 am   BACKBONE|DICT|INTERRES
    61   29   99 1    
    62   30   31 2    
    63   30   32 1    
    64   32   33 1    
    65   32   34 1    
    66   32  100 1    
    67   33  101 1    
    68   33  102 1    
    69   33  103 1    
    70   34   35 am   BACKBONE|DICT|INTERRES
    71   34  104 1    
    72   35   36 2    
    73   37   38 2    
    74   37   39 am   BACKBONE|DICT|INTERRES
    75   39   40 1    
    76   39  105 1    
    77   40   41 1    
    78   40   42 1    
    79   40  106 1    
    80   41  107 1    
    81   41  108 1    
    82   41  109 1    
    83   42   43 2    
    84   42   44 am   BACKBONE|DICT|INTERRES
    85   44   45 1    
    86   44  110 1    
    87   45   46 1    
    88   45   47 1    
    89   45  111 1    
    90   46  112 1    
    91   46  113 1    
    92   46  114 1    
    93   47   48 2    
    94   47   49 am   BACKBONE|DICT|INTERRES
    95   49   50 1    
    96   49  115 1    
    97   50   51 1    
    98   50   52 1    
    99   50  116 1    
   100   51  117 1    
   101   51  118 1    
   102   51  119 1    
   103   52   53 2    
   104   52   54 am   BACKBONE|DICT|INTERRES
   105   54   55 1    
   106   54  120 1    
   107   55   56 1    
   108   55   57 1    
   109   55  121 1    
   110   56  122 1    
   111   56  123 1    
   112   56  124 1    
   113   57   58 2    
   114   57   59 am   BACKBONE|DICT|INTERRES
   115   59   60 1    
   116   59  125 1    
   117   60   61 1    
   118   60   62 1    
   119   60  126 1    
   120   61  127 1    
   121   61  128 1    
   122   61  129 1    
   123   62   63 2    
   124   62   64 am   BACKBONE|DICT|INTERRES
   125   64   65 1    
   126   64  130 1    
   127   65   66 1    
   128   65   69 1    
   129   65  131 1    
   130   66   67 am   BACKBONE|DICT|INTERRES
   131   66   68 2    
   132   67  132 1    
   133   67  133 1    
   134   69   70 1    
   135   69  134 1    
   136   69  135 1    
   137   70   71 1    
   138   71  136 1    
   139   71  137 1    
@<TRIPOS>SUBSTRUCTURE
     1 UNK         1 GROUP             0       ****    0 ROOT    
