@<TRIPOS>MOLECULE
3R136
137   139    1
SMALL
USER_CHARGES


@<TRIPOS>ATOM
      1 CA         27.7575   18.2694   -0.2436 C.3       0 UNK        -0.1979 
      2 C          29.1126   18.9124   -0.4991 C.2       0 UNK         0.4864 
      3 O          29.8333   18.4835   -1.4011 O.2       0 UNK        -0.5359 
      4 N          29.4637   19.9397    0.2864 N.am      1 UNK        -0.4318 
      5 CA         30.7270   20.6826    0.1837 C.3       1 UNK         0.0824 
      6 C6         31.0549   21.4311    1.5006 C.3       12 UNK        -0.0944 
      7 S7         29.8026   22.6713    1.9874 S.3       12 UNK        -0.2672 
      8 C8         29.5856   22.2928    3.7525 C.3       12 UNK         0.0333 
      9 C9         28.8972   23.4453    4.4655 C.ar      12 UNK        -0.0807 
     10 C10        29.6610   24.4543    5.0587 C.ar      12 UNK        -0.0894 
     11 C11        29.0420   25.5393    5.6865 C.ar      12 UNK        -0.0804 
     12 C12        27.6467   25.5917    5.7489 C.ar      12 UNK        -0.0824 
     13 C13        26.8719   24.5948    5.1482 C.ar      12 UNK        -0.0762 
     14 C14        27.5021   23.5196    4.5131 C.ar      12 UNK        -0.0782 
     15 C15        25.3542   24.6928    5.1569 C.3       12 UNK         0.0230 
     16 S16        24.7242   25.3798    3.5913 S.3       12 UNK        -0.2608 
     17 C17        25.1789   27.1453    3.7297 C.3       12 UNK        -0.0989 
     18 CA         26.5185   27.4990    3.0225 C.3       5 UNK         0.0716 
     19 N          26.5848   27.0590    1.6272 N.am      5 UNK        -0.4135 
     20 C          25.8915   27.5336    0.5835 C.2       4 UNK         0.5031 
     21 O          24.9920   28.3705    0.6783 O.2       4 UNK        -0.5229 
     22 CA         26.2947   26.9936   -0.8070 C.3       4 UNK         0.0329 
     23 CB         26.1568   28.0681   -1.9065 C.3       4 UNK        -0.2001 
     24 N          27.6363   26.3846   -0.8522 N.am      4 UNK        -0.4303 
     25 C          28.8111   26.9686   -0.5580 C.2       3 UNK         0.5044 
     26 O          28.9104   28.1335   -0.1718 O.2       3 UNK        -0.5152 
     27 CA         30.0801   26.0968   -0.6260 C.3       3 UNK         0.0319 
     28 CB         30.7383   26.0107    0.7614 C.3       3 UNK        -0.2001 
     29 N          29.8271   24.7355   -1.1120 N.am      3 UNK        -0.4354 
     30 C          29.7504   24.3823   -2.4041 C.2       2 UNK         0.4964 
     31 O          29.9006   25.1796   -3.3308 O.2       2 UNK        -0.5047 
     32 CA         29.4036   22.9105   -2.7191 C.3       2 UNK         0.0288 
     33 CB         30.0859   22.4020   -4.0078 C.3       2 UNK        -0.2113 
     34 N          29.6221   21.9841   -1.5979 N.am      2 UNK        -0.4145 
     35 C          30.7910   21.6314   -1.0360 C.2       1 UNK         0.5006 
     36 O          31.8892   22.0375   -1.4196 O.2       1 UNK        -0.5103 
     37 C          26.9203   28.9828    3.2071 C.2       5 UNK         0.5055 
     38 O          26.4616   29.6220    4.1571 O.2       5 UNK        -0.5220 
     39 N          27.7634   29.5172    2.3086 N.am      6 UNK        -0.4450 
     40 CA         28.2466   30.8957    2.3483 C.3       6 UNK         0.0367 
     41 CB         28.6321   31.3391    0.9269 C.3       6 UNK        -0.1929 
     42 C          29.4060   31.0211    3.3499 C.2       6 UNK         0.5070 
     43 O          30.5737   30.8746    2.9747 O.2       6 UNK        -0.5237 
     44 N          29.0503   31.2542    4.6199 N.am      7 UNK        -0.4739 
     45 CA         29.9697   31.4442    5.7443 C.3       7 UNK         0.0276 
     46 CB         29.1593   31.6302    7.0361 C.3       7 UNK        -0.1927 
     47 C          30.9170   32.6315    5.5205 C.2       7 UNK         0.5013 
     48 O          30.4850   33.6680    5.0097 O.2       7 UNK        -0.5193 
     49 N          32.1946   32.4386    5.8742 N.am      8 UNK        -0.4253 
     50 CA         33.3500   33.3271    5.6698 C.3       8 UNK         0.0242 
     51 CB         33.1642   34.6830    6.3795 C.3       8 UNK        -0.2000 
     52 C          33.7489   33.5203    4.1933 C.2       8 UNK         0.4948 
     53 O          34.9427   33.5128    3.8934 O.2       8 UNK        -0.5275 
     54 N          32.7615   33.6779    3.3037 N.am      9 UNK        -0.4246 
     55 CA         32.9310   33.8570    1.8629 C.3       9 UNK         0.0261 
     56 CB         31.6005   34.3151    1.2462 C.3       9 UNK        -0.1959 
     57 C          33.4612   32.6008    1.1527 C.2       9 UNK         0.5033 
     58 O          34.3783   32.7240    0.3387 O.2       9 UNK        -0.5390 
     59 N          32.8849   31.4309    1.4632 N.am      10 UNK        -0.4215 
     60 CA         33.2685   30.1422    0.8856 C.3       10 UNK         0.0240 
     61 CB         32.1030   29.5603    0.0684 C.3       10 UNK        -0.1982 
     62 C          33.7194   29.1703    1.9804 C.2       10 UNK         0.4970 
     63 O          34.8621   28.7137    1.9325 O.2       10 UNK        -0.4916 
     64 N          32.8336   28.8709    2.9416 N.am      11 UNK        -0.4279 
     65 CA         33.1014   27.9200    4.0369 C.3       11 UNK         0.1003 
     66 C          33.7153   28.5576    5.3176 C.2       11 UNK         0.5709 
     67 N          34.0876   29.8320    5.3111 N.am      11 UNK        -0.7358 
     68 O          33.8869   27.8796    6.3277 O.2       11 UNK        -0.4999 
     69 C69        31.8924   26.9883    4.3165 C.3       12 UNK        -0.0954 
     70 S70        30.4089   27.8272    4.9659 S.3       12 UNK        -0.2268 
     71 C71        29.8742   26.6723    6.2687 C.3       12 UNK         0.0203 
     72 H72        27.8831   17.2146   -0.0006 H         1 UNK         0.0888 
     73 H73        27.2285   18.7461    0.5814 H         1 UNK         0.0888 
     74 H74        27.1336   18.3422   -1.1340 H         1 UNK         0.0888 
     75 H75        28.8373   20.2499    1.0162 H         1 UNK         0.3017 
     76 H76        31.5211   19.9484    0.0294 H         1 UNK         0.0873 
     77 H77        31.1699   20.7009    2.3033 H         1 UNK         0.0745 
     78 H78        32.0219   21.9326    1.4258 H         1 UNK         0.0745 
     79 H79        30.5583   22.1045    4.2100 H         1 UNK         0.0705 
     80 H80        29.0069   21.3743    3.8618 H         1 UNK         0.0705 
     81 H81        30.7392   24.4047    5.0077 H         1 UNK         0.1334 
     82 H82        27.1627   26.4315    6.2287 H         1 UNK         0.1417 
     83 H83        26.9063   22.7523    4.0375 H         1 UNK         0.1562 
     84 H84        25.0060   25.2978    5.9956 H         1 UNK         0.0748 
     85 H85        24.9265   23.6997    5.3022 H         1 UNK         0.0748 
     86 H86        25.2178   27.4141    4.7867 H         1 UNK         0.0940 
     87 H87        24.3649   27.7352    3.3047 H         1 UNK         0.0940 
     88 H88        27.3139   26.9445    3.5160 H         1 UNK         0.0703 
     89 H89        27.2837   26.3583    1.4328 H         1 UNK         0.3081 
     90 H90        25.5883   26.1939   -1.0339 H         1 UNK         0.0719 
     91 H91        26.7874   28.9348   -1.7049 H         1 UNK         0.0809 
     92 H92        26.4322   27.6732   -2.8843 H         1 UNK         0.0809 
     93 H93        25.1289   28.4252   -1.9814 H         1 UNK         0.0809 
     94 H94        27.6635   25.4146   -1.1313 H         1 UNK         0.2990 
     95 H95        30.7790   26.5927   -1.3028 H         1 UNK         0.0690 
     96 H96        31.6367   25.3935    0.7406 H         1 UNK         0.0788 
     97 H97        30.0605   25.5943    1.5073 H         1 UNK         0.0788 
     98 H98        31.0347   26.9976    1.1159 H         1 UNK         0.0788 
     99 H99        29.7045   24.0207   -0.4080 H         1 UNK         0.2993 
    100 H100       28.3281   22.9012   -2.9024 H         1 UNK         0.0949 
    101 H101       31.1726   22.4661   -3.9456 H         1 UNK         0.0767 
    102 H102       29.8219   21.3646   -4.2136 H         1 UNK         0.0767 
    103 H103       29.7774   22.9902   -4.8730 H         1 UNK         0.0767 
    104 H104       28.7853   21.5902   -1.1908 H         1 UNK         0.3013 
    105 H105       28.1210   28.9406    1.5530 H         1 UNK         0.3121 
    106 H106       27.4353   31.5484    2.6783 H         1 UNK         0.0774 
    107 H107       27.7946   31.2253    0.2385 H         1 UNK         0.0815 
    108 H108       28.9188   32.3897    0.9121 H         1 UNK         0.0815 
    109 H109       29.4653   30.7644    0.5268 H         1 UNK         0.0815 
    110 H110       28.0625   31.2995    4.8310 H         1 UNK         0.2987 
    111 H111       30.5688   30.5380    5.8387 H         1 UNK         0.0949 
    112 H112       28.5240   30.7662    7.2330 H         1 UNK         0.0806 
    113 H113       29.8177   31.7500    7.8975 H         1 UNK         0.0806 
    114 H114       28.5215   32.5138    6.9874 H         1 UNK         0.0806 
    115 H115       32.4303   31.5355    6.2629 H         1 UNK         0.3010 
    116 H116       34.1908   32.8258    6.1519 H         1 UNK         0.0829 
    117 H117       32.9369   34.5492    7.4370 H         1 UNK         0.0813 
    118 H118       34.0749   35.2801    6.3168 H         1 UNK         0.0813 
    119 H119       32.3623   35.2736    5.9360 H         1 UNK         0.0813 
    120 H120       31.8120   33.6926    3.6681 H         1 UNK         0.3038 
    121 H121       33.6633   34.6532    1.7120 H         1 UNK         0.0769 
    122 H122       31.6871   34.4316    0.1650 H         1 UNK         0.0811 
    123 H123       31.2867   35.2769    1.6522 H         1 UNK         0.0811 
    124 H124       30.8043   33.5969    1.4375 H         1 UNK         0.0811 
    125 H125       32.1102   31.4132    2.1256 H         1 UNK         0.3204 
    126 H126       34.1123   30.2665    0.2037 H         1 UNK         0.0748 
    127 H127       32.3906   28.6225   -0.4082 H         1 UNK         0.0771 
    128 H128       31.2335   29.3541    0.6915 H         1 UNK         0.0771 
    129 H129       31.7923   30.2436   -0.7219 H         1 UNK         0.0771 
    130 H130       31.9273   29.3273    2.9538 H         1 UNK         0.2980 
    131 H131       33.8881   27.2450    3.6956 H         1 UNK         0.0545 
    132 H132       34.5419   30.2065    6.1283 H         1 UNK         0.3459 
    133 H133       34.0236   30.3719    4.4642 H         1 UNK         0.3459 
    134 H134       31.6085   26.4661    3.4039 H         1 UNK         0.0616 
    135 H135       32.1999   26.2049    5.0099 H         1 UNK         0.0616 
    136 H136       29.2891   27.2291    7.0021 H         1 UNK         0.0634 
    137 H137       30.7366   26.2778    6.8078 H         1 UNK         0.0634 
@<TRIPOS>BOND
     1    1    2 1    
     2    1   72 1    
     3    1   73 1    
     4    1   74 1    
     5    2    3 2    
     6    2    4 am   BACKBONE|DICT|INTERRES
     7    4    5 1    
     8    4   75 1    
     9    5    6 1    
    10    5   35 1    
    11    5   76 1    
    12    6    7 1    
    13    6   77 1    
    14    6   78 1    
    15    7    8 1    
    16    8    9 1    
    17    8   79 1    
    18    8   80 1    
    19    9   10 ar   
    20    9   14 ar   
    21   10   11 ar   
    22   10   81 1    
    23   11   12 ar   
    24   11   71 1    
    25   12   13 ar   
    26   12   82 1    
    27   13   14 ar   
    28   13   15 1    
    29   14   83 1    
    30   15   16 1    
    31   15   84 1    
    32   15   85 1    
    33   16   17 1    
    34   17   18 1    
    35   17   86 1    
    36   17   87 1    
    37   18   19 1    
    38   18   37 1    
    39   18   88 1    
    40   19   20 am   BACKBONE|DICT|INTERRES
    41   19   89 1    
    42   20   21 2    
    43   20   22 1    
    44   22   23 1    
    45   22   24 1    
    46   22   90 1    
    47   23   91 1    
    48   23   92 1    
    49   23   93 1    
    50   24   25 am   BACKBONE|DICT|INTERRES
    51   24   94 1    
    52   25   26 2    
    53   25   27 1    
    54   27   28 1    
    55   27   29 1    
    56   27   95 1    
    57   28   96 1    
    58   28   97 1    
    59   28   98 1    
    60   29   30 am   BACKBONE|DICT|INTERRES
    61   29   99 1    
    62   30   31 2    
    63   30   32 1    
    64   32   33 1    
    65   32   34 1    
    66   32  100 1    
    67   33  101 1    
    68   33  102 1    
    69   33  103 1    
    70   34   35 am   BACKBONE|DICT|INTERRES
    71   34  104 1    
    72   35   36 2    
    73   37   38 2    
    74   37   39 am   BACKBONE|DICT|INTERRES
    75   39   40 1    
    76   39  105 1    
    77   40   41 1    
    78   40   42 1    
    79   40  106 1    
    80   41  107 1    
    81   41  108 1    
    82   41  109 1    
    83   42   43 2    
    84   42   44 am   BACKBONE|DICT|INTERRES
    85   44   45 1    
    86   44  110 1    
    87   45   46 1    
    88   45   47 1    
    89   45  111 1    
    90   46  112 1    
    91   46  113 1    
    92   46  114 1    
    93   47   48 2    
    94   47   49 am   BACKBONE|DICT|INTERRES
    95   49   50 1    
    96   49  115 1    
    97   50   51 1    
    98   50   52 1    
    99   50  116 1    
   100   51  117 1    
   101   51  118 1    
   102   51  119 1    
   103   52   53 2    
   104   52   54 am   BACKBONE|DICT|INTERRES
   105   54   55 1    
   106   54  120 1    
   107   55   56 1    
   108   55   57 1    
   109   55  121 1    
   110   56  122 1    
   111   56  123 1    
   112   56  124 1    
   113   57   58 2    
   114   57   59 am   BACKBONE|DICT|INTERRES
   115   59   60 1    
   116   59  125 1    
   117   60   61 1    
   118   60   62 1    
   119   60  126 1    
   120   61  127 1    
   121   61  128 1    
   122   61  129 1    
   123   62   63 2    
   124   62   64 am   BACKBONE|DICT|INTERRES
   125   64   65 1    
   126   64  130 1    
   127   65   66 1    
   128   65   69 1    
   129   65  131 1    
   130   66   67 am   BACKBONE|DICT|INTERRES
   131   66   68 2    
   132   67  132 1    
   133   67  133 1    
   134   69   70 1    
   135   69  134 1    
   136   69  135 1    
   137   70   71 1    
   138   71  136 1    
   139   71  137 1    
@<TRIPOS>SUBSTRUCTURE
     1 UNK         1 GROUP             0       ****    0 ROOT    
