@<TRIPOS>MOLECULE
3R136
137   139    1
SMALL
USER_CHARGES


@<TRIPOS>ATOM
      1 CA         31.4496   25.9776   -4.7814 C.3       0 UNK        -0.1979 
      2 C          31.0249   25.4030   -3.4379 C.2       0 UNK         0.4864 
      3 O          31.0746   24.1861   -3.2541 O.2       0 UNK        -0.5359 
      4 N          30.6137   26.2719   -2.5036 N.am      1 UNK        -0.4318 
      5 CA         30.1206   25.9426   -1.1633 C.3       1 UNK         0.0824 
      6 C6         31.1936   25.2587   -0.2670 C.3       12 UNK        -0.0944 
      7 S7         30.7990   25.4134    1.5046 S.3       12 UNK        -0.2672 
      8 C8         30.7867   23.6762    2.0525 C.3       12 UNK         0.0333 
      9 C9         30.3758   23.6040    3.5132 C.ar      12 UNK        -0.0807 
     10 C10        31.2838   23.9698    4.5098 C.ar      12 UNK        -0.0894 
     11 C11        30.8816   24.0413    5.8464 C.ar      12 UNK        -0.0804 
     12 C12        29.5583   23.7350    6.1803 C.ar      12 UNK        -0.0824 
     13 C13        28.6459   23.3437    5.1946 C.ar      12 UNK        -0.0762 
     14 C14        29.0718   23.2450    3.8661 C.ar      12 UNK        -0.0782 
     15 C15        27.1910   23.0712    5.5638 C.3       12 UNK         0.0230 
     16 S16        26.0092   24.1614    4.6915 S.3       12 UNK        -0.2608 
     17 C17        26.7068   25.8277    4.9753 C.3       12 UNK        -0.0989 
     18 CA         27.4585   26.3444    3.7176 C.3       5 UNK         0.0716 
     19 N          26.5922   26.5051    2.5441 N.am      5 UNK        -0.4135 
     20 C          25.6953   27.4792    2.3264 C.2       4 UNK         0.5031 
     21 O          25.4799   28.4086    3.1050 O.2       4 UNK        -0.5229 
     22 CA         24.9043   27.4157    1.0059 C.3       4 UNK         0.0329 
     23 CB         25.5797   28.2927   -0.0609 C.3       4 UNK        -0.2001 
     24 N          24.7571   26.0508    0.4934 N.am      4 UNK        -0.4303 
     25 C          23.9955   25.1096    1.0712 C.2       3 UNK         0.5044 
     26 O          23.2413   25.3358    2.0183 O.2       3 UNK        -0.5152 
     27 CA         24.0808   23.6721    0.5203 C.3       3 UNK         0.0319 
     28 CB         22.8034   23.3207   -0.2605 C.3       3 UNK        -0.2001 
     29 N          25.2456   23.3807   -0.3243 N.am      3 UNK        -0.4354 
     30 C          26.5325   23.4604    0.0424 C.2       2 UNK         0.4964 
     31 O          26.9045   23.8768    1.1410 O.2       2 UNK        -0.5047 
     32 CA         27.5876   23.0059   -0.9872 C.3       2 UNK         0.0288 
     33 CB         27.0378   22.8110   -2.4200 C.3       2 UNK        -0.2113 
     34 N          28.7544   23.8938   -1.0045 N.am      2 UNK        -0.4145 
     35 C          28.7632   25.2121   -1.2517 C.2       1 UNK         0.5006 
     36 O          27.7574   25.8625   -1.5458 O.2       1 UNK        -0.5103 
     37 C          28.3731   27.5591    3.9830 C.2       5 UNK         0.5055 
     38 O          28.6272   27.9135    5.1357 O.2       5 UNK        -0.5220 
     39 N          28.8713   28.1563    2.8965 N.am      6 UNK        -0.4450 
     40 CA         29.8607   29.2209    2.8764 C.3       6 UNK         0.0367 
     41 CB         29.2098   30.5761    3.2017 C.3       6 UNK        -0.1929 
     42 C          30.4732   29.2297    1.4761 C.2       6 UNK         0.5070 
     43 O          29.7276   29.1805    0.4957 O.2       6 UNK        -0.5237 
     44 N          31.8040   29.3000    1.4062 N.am      7 UNK        -0.4739 
     45 CA         32.5598   29.4432    0.1618 C.3       7 UNK         0.0276 
     46 CB         33.8506   28.6148    0.2524 C.3       7 UNK        -0.1927 
     47 C          32.8861   30.9199   -0.1044 C.2       7 UNK         0.5013 
     48 O          32.8578   31.3482   -1.2584 O.2       7 UNK        -0.5193 
     49 N          33.1707   31.6706    0.9670 N.am      8 UNK        -0.4253 
     50 CA         33.4713   33.0994    0.9538 C.3       8 UNK         0.0242 
     51 CB         34.9233   33.3393    0.4905 C.3       8 UNK        -0.2000 
     52 C          33.1988   33.6264    2.3652 C.2       8 UNK         0.4948 
     53 O          34.1401   33.8883    3.1166 O.2       8 UNK        -0.5275 
     54 N          31.9101   33.6646    2.7373 N.am      9 UNK        -0.4246 
     55 CA         31.3450   33.9367    4.0719 C.3       9 UNK         0.0261 
     56 CB         31.7329   35.3345    4.5937 C.3       9 UNK        -0.1959 
     57 C          31.6587   32.8388    5.1075 C.2       9 UNK         0.5033 
     58 O          30.7447   32.3655    5.7831 O.2       9 UNK        -0.5390 
     59 N          32.9276   32.4288    5.1808 N.am      10 UNK        -0.4215 
     60 CA         33.4002   31.2286    5.8639 C.3       10 UNK         0.0240 
     61 CB         34.8485   31.4720    6.3227 C.3       10 UNK        -0.1982 
     62 C          33.3274   30.0148    4.9210 C.2       10 UNK         0.4970 
     63 O          33.1385   30.1758    3.7106 O.2       10 UNK        -0.4916 
     64 N          33.5206   28.8227    5.4965 N.am      11 UNK        -0.4279 
     65 CA         33.5703   27.5186    4.8103 C.3       11 UNK         0.1003 
     66 C          34.6972   27.3584    3.7448 C.2       11 UNK         0.5709 
     67 N          35.7035   28.2232    3.6959 N.am      11 UNK        -0.7358 
     68 O          34.6555   26.4247    2.9486 O.2       11 UNK        -0.4999 
     69 C69        33.6556   26.3622    5.8419 C.3       12 UNK        -0.0954 
     70 S70        32.1896   26.2506    6.9240 S.3       12 UNK        -0.2268 
     71 C71        31.8666   24.4561    6.9316 C.3       12 UNK         0.0203 
     72 H72        30.8270   25.5694   -5.5771 H         1 UNK         0.0888 
     73 H73        31.3639   27.0638   -4.8072 H         1 UNK         0.0888 
     74 H74        32.4861   25.7146   -4.9906 H         1 UNK         0.0888 
     75 H75        30.5677   27.2533   -2.7404 H         1 UNK         0.3017 
     76 H76        29.8970   26.9089   -0.7120 H         1 UNK         0.0873 
     77 H77        31.3648   24.2169   -0.5413 H         1 UNK         0.0745 
     78 H78        32.1540   25.7548   -0.4129 H         1 UNK         0.0745 
     79 H79        30.0994   23.0974    1.4344 H         1 UNK         0.0705 
     80 H80        31.7785   23.2414    1.9199 H         1 UNK         0.0705 
     81 H81        32.2925   24.2355    4.2299 H         1 UNK         0.1334 
     82 H82        29.2357   23.8129    7.2096 H         1 UNK         0.1417 
     83 H83        28.3608   22.9690    3.0989 H         1 UNK         0.1562 
     84 H84        27.0372   23.1845    6.6381 H         1 UNK         0.0748 
     85 H85        26.9526   22.0332    5.3284 H         1 UNK         0.0748 
     86 H86        27.3663   25.7855    5.8438 H         1 UNK         0.0940 
     87 H87        25.8995   26.5108    5.2438 H         1 UNK         0.0940 
     88 H88        28.1625   25.5763    3.4140 H         1 UNK         0.0703 
     89 H89        26.6542   25.7474    1.8710 H         1 UNK         0.3081 
     90 H90        23.9069   27.8175    1.1970 H         1 UNK         0.0719 
     91 H91        26.5929   27.9549   -0.2819 H         1 UNK         0.0809 
     92 H92        25.0145   28.2933   -0.9930 H         1 UNK         0.0809 
     93 H93        25.6509   29.3281    0.2753 H         1 UNK         0.0809 
     94 H94        25.3485   25.7847   -0.2823 H         1 UNK         0.2990 
     95 H95        24.1422   23.0110    1.3874 H         1 UNK         0.0690 
     96 H96        22.7947   22.2723   -0.5593 H         1 UNK         0.0788 
     97 H97        22.7012   23.9291   -1.1601 H         1 UNK         0.0788 
     98 H98        21.9132   23.4874    0.3480 H         1 UNK         0.0788 
     99 H99        25.0459   23.0507   -1.2577 H         1 UNK         0.2993 
    100 H100       27.9471   22.0377   -0.6356 H         1 UNK         0.0949 
    101 H101       26.5893   23.7233   -2.8156 H         1 UNK         0.0767 
    102 H102       27.8337   22.5161   -3.1044 H         1 UNK         0.0767 
    103 H103       26.2852   22.0224   -2.4567 H         1 UNK         0.0767 
    104 H104       29.6380   23.4578   -0.7865 H         1 UNK         0.3013 
    105 H105       28.6220   27.8067    1.9801 H         1 UNK         0.3121 
    106 H106       30.6356   28.9997    3.6131 H         1 UNK         0.0774 
    107 H107       28.3745   30.7921    2.5344 H         1 UNK         0.0815 
    108 H108       29.9308   31.3858    3.0972 H         1 UNK         0.0815 
    109 H109       28.8381   30.6036    4.2261 H         1 UNK         0.0815 
    110 H110       32.3314   29.3939    2.2716 H         1 UNK         0.2987 
    111 H111       31.9732   29.0674   -0.6796 H         1 UNK         0.0949 
    112 H112       34.5064   28.9724    1.0470 H         1 UNK         0.0806 
    113 H113       33.6345   27.5643    0.4475 H         1 UNK         0.0806 
    114 H114       34.4118   28.6641   -0.6815 H         1 UNK         0.0806 
    115 H115       33.1684   31.2315    1.8824 H         1 UNK         0.3010 
    116 H116       32.7935   33.6106    0.2666 H         1 UNK         0.0829 
    117 H117       35.1758   34.3995    0.5332 H         1 UNK         0.0813 
    118 H118       35.6398   32.8060    1.1166 H         1 UNK         0.0813 
    119 H119       35.0725   33.0131   -0.5388 H         1 UNK         0.0813 
    120 H120       31.2280   33.3965    2.0409 H         1 UNK         0.3038 
    121 H121       30.2621   33.9338    3.9361 H         1 UNK         0.0769 
    122 H122       32.8017   35.4203    4.7913 H         1 UNK         0.0811 
    123 H123       31.2152   35.5552    5.5280 H         1 UNK         0.0811 
    124 H124       31.4606   36.1128    3.8809 H         1 UNK         0.0811 
    125 H125       33.5823   32.8769    4.5419 H         1 UNK         0.3204 
    126 H126       32.7750   31.0320    6.7375 H         1 UNK         0.0748 
    127 H127       35.2397   30.6203    6.8805 H         1 UNK         0.0771 
    128 H128       35.5160   31.6455    5.4772 H         1 UNK         0.0771 
    129 H129       34.9124   32.3400    6.9793 H         1 UNK         0.0771 
    130 H130       33.6667   28.7861    6.4943 H         1 UNK         0.2980 
    131 H131       32.6314   27.4130    4.2630 H         1 UNK         0.0545 
    132 H132       35.7519   28.9926    4.3425 H         1 UNK         0.3459 
    133 H133       36.4241   28.0986    3.0032 H         1 UNK         0.3459 
    134 H134       34.5344   26.4878    6.4769 H         1 UNK         0.0616 
    135 H135       33.7975   25.4063    5.3380 H         1 UNK         0.0616 
    136 H136       32.7994   23.9008    6.8237 H         1 UNK         0.0634 
    137 H137       31.4744   24.1875    7.9136 H         1 UNK         0.0634 
@<TRIPOS>BOND
     1    1    2 1    
     2    1   72 1    
     3    1   73 1    
     4    1   74 1    
     5    2    3 2    
     6    2    4 am   BACKBONE|DICT|INTERRES
     7    4    5 1    
     8    4   75 1    
     9    5    6 1    
    10    5   35 1    
    11    5   76 1    
    12    6    7 1    
    13    6   77 1    
    14    6   78 1    
    15    7    8 1    
    16    8    9 1    
    17    8   79 1    
    18    8   80 1    
    19    9   10 ar   
    20    9   14 ar   
    21   10   11 ar   
    22   10   81 1    
    23   11   12 ar   
    24   11   71 1    
    25   12   13 ar   
    26   12   82 1    
    27   13   14 ar   
    28   13   15 1    
    29   14   83 1    
    30   15   16 1    
    31   15   84 1    
    32   15   85 1    
    33   16   17 1    
    34   17   18 1    
    35   17   86 1    
    36   17   87 1    
    37   18   19 1    
    38   18   37 1    
    39   18   88 1    
    40   19   20 am   BACKBONE|DICT|INTERRES
    41   19   89 1    
    42   20   21 2    
    43   20   22 1    
    44   22   23 1    
    45   22   24 1    
    46   22   90 1    
    47   23   91 1    
    48   23   92 1    
    49   23   93 1    
    50   24   25 am   BACKBONE|DICT|INTERRES
    51   24   94 1    
    52   25   26 2    
    53   25   27 1    
    54   27   28 1    
    55   27   29 1    
    56   27   95 1    
    57   28   96 1    
    58   28   97 1    
    59   28   98 1    
    60   29   30 am   BACKBONE|DICT|INTERRES
    61   29   99 1    
    62   30   31 2    
    63   30   32 1    
    64   32   33 1    
    65   32   34 1    
    66   32  100 1    
    67   33  101 1    
    68   33  102 1    
    69   33  103 1    
    70   34   35 am   BACKBONE|DICT|INTERRES
    71   34  104 1    
    72   35   36 2    
    73   37   38 2    
    74   37   39 am   BACKBONE|DICT|INTERRES
    75   39   40 1    
    76   39  105 1    
    77   40   41 1    
    78   40   42 1    
    79   40  106 1    
    80   41  107 1    
    81   41  108 1    
    82   41  109 1    
    83   42   43 2    
    84   42   44 am   BACKBONE|DICT|INTERRES
    85   44   45 1    
    86   44  110 1    
    87   45   46 1    
    88   45   47 1    
    89   45  111 1    
    90   46  112 1    
    91   46  113 1    
    92   46  114 1    
    93   47   48 2    
    94   47   49 am   BACKBONE|DICT|INTERRES
    95   49   50 1    
    96   49  115 1    
    97   50   51 1    
    98   50   52 1    
    99   50  116 1    
   100   51  117 1    
   101   51  118 1    
   102   51  119 1    
   103   52   53 2    
   104   52   54 am   BACKBONE|DICT|INTERRES
   105   54   55 1    
   106   54  120 1    
   107   55   56 1    
   108   55   57 1    
   109   55  121 1    
   110   56  122 1    
   111   56  123 1    
   112   56  124 1    
   113   57   58 2    
   114   57   59 am   BACKBONE|DICT|INTERRES
   115   59   60 1    
   116   59  125 1    
   117   60   61 1    
   118   60   62 1    
   119   60  126 1    
   120   61  127 1    
   121   61  128 1    
   122   61  129 1    
   123   62   63 2    
   124   62   64 am   BACKBONE|DICT|INTERRES
   125   64   65 1    
   126   64  130 1    
   127   65   66 1    
   128   65   69 1    
   129   65  131 1    
   130   66   67 am   BACKBONE|DICT|INTERRES
   131   66   68 2    
   132   67  132 1    
   133   67  133 1    
   134   69   70 1    
   135   69  134 1    
   136   69  135 1    
   137   70   71 1    
   138   71  136 1    
   139   71  137 1    
@<TRIPOS>SUBSTRUCTURE
     1 UNK         1 GROUP             0       ****    0 ROOT    
