@<TRIPOS>MOLECULE
3R136
137   139    1
SMALL
USER_CHARGES


@<TRIPOS>ATOM
      1 CA         24.1773   22.8591    3.4406 C.3       0 UNK        -0.1979 
      2 C          25.5797   22.3418    3.7267 C.2       0 UNK         0.4864 
      3 O          25.7843   21.6388    4.7175 O.2       0 UNK        -0.5359 
      4 N          26.5415   22.6867    2.8673 N.am      1 UNK        -0.4318 
      5 CA         27.9444   22.2877    2.9523 C.3       1 UNK         0.0824 
      6 C6         28.7370   23.2202    3.9104 C.3       12 UNK        -0.0944 
      7 S7         30.4619   22.6888    4.1917 S.3       12 UNK        -0.2672 
      8 C8         31.1244   24.0682    5.1791 C.3       12 UNK         0.0333 
      9 C9         30.9537   25.4186    4.4950 C.ar      12 UNK        -0.0807 
     10 C10        31.6781   25.7288    3.3399 C.ar      12 UNK        -0.0894 
     11 C11        31.5384   26.9801    2.7215 C.ar      12 UNK        -0.0804 
     12 C12        30.6594   27.9155    3.2780 C.ar      12 UNK        -0.0824 
     13 C13        29.9096   27.6068    4.4166 C.ar      12 UNK        -0.0762 
     14 C14        30.0637   26.3578    5.0219 C.ar      12 UNK        -0.0782 
     15 C15        28.9427   28.6207    5.0098 C.3       12 UNK         0.0230 
     16 S16        27.2540   28.3985    4.3583 S.3       12 UNK        -0.2608 
     17 C17        27.3651   29.2770    2.7648 C.3       12 UNK        -0.0989 
     18 CA         27.5584   28.3131    1.5638 C.3       5 UNK         0.0716 
     19 N          26.3986   27.4654    1.2779 N.am      5 UNK        -0.4135 
     20 C          25.1681   27.8429    0.9016 C.2       4 UNK         0.5031 
     21 O          24.7831   29.0114    0.8420 O.2       4 UNK        -0.5229 
     22 CA         24.2238   26.7027    0.4684 C.3       4 UNK         0.0329 
     23 CB         22.8388   27.2060    0.0192 C.3       4 UNK        -0.2001 
     24 N          24.8348   25.9452   -0.6266 N.am      4 UNK        -0.4303 
     25 C          25.7245   24.9599   -0.4612 C.2       3 UNK         0.5044 
     26 O          25.9840   24.4733    0.6445 O.2       3 UNK        -0.5152 
     27 CA         26.4743   24.4760   -1.7218 C.3       3 UNK         0.0319 
     28 CB         26.7076   25.5977   -2.7606 C.3       3 UNK        -0.2001 
     29 N          27.7407   23.8200   -1.3757 N.am      3 UNK        -0.4354 
     30 C          28.7850   24.3651   -0.7335 C.2       2 UNK         0.4964 
     31 O          28.8908   25.5607   -0.4471 O.2       2 UNK        -0.5047 
     32 CA         29.8321   23.3704   -0.2127 C.3       2 UNK         0.0288 
     33 CB         31.2519   23.9584   -0.2263 C.3       2 UNK        -0.2113 
     34 N          29.4672   23.0273    1.1587 N.am      2 UNK        -0.4145 
     35 C          28.4466   22.2287    1.4973 C.2       1 UNK         0.5006 
     36 O          27.8663   21.4959    0.6912 O.2       1 UNK        -0.5103 
     37 C          28.0252   29.0561    0.2951 C.2       5 UNK         0.5055 
     38 O          27.6286   30.1990    0.0609 O.2       5 UNK        -0.5220 
     39 N          28.8788   28.3921   -0.4975 N.am      6 UNK        -0.4450 
     40 CA         29.5119   28.9279   -1.7102 C.3       6 UNK         0.0367 
     41 CB         30.2541   27.7899   -2.4324 C.3       6 UNK        -0.1929 
     42 C          30.4621   30.1251   -1.4849 C.2       6 UNK         0.5070 
     43 O          30.8070   30.7980   -2.4573 O.2       6 UNK        -0.5237 
     44 N          30.8669   30.3786   -0.2349 N.am      7 UNK        -0.4739 
     45 CA         31.6255   31.5531    0.1922 C.3       7 UNK         0.0276 
     46 CB         33.0907   31.1605    0.4530 C.3       7 UNK        -0.1927 
     47 C          30.9746   32.1205    1.4606 C.2       7 UNK         0.5013 
     48 O          30.1978   31.4237    2.1167 O.2       7 UNK        -0.5193 
     49 N          31.3203   33.3702    1.7952 N.am      8 UNK        -0.4253 
     50 CA         30.7786   34.1219    2.9355 C.3       8 UNK         0.0242 
     51 CB         31.1215   35.6106    2.7505 C.3       8 UNK        -0.2000 
     52 C          31.2401   33.6298    4.3238 C.2       8 UNK         0.4948 
     53 O          30.7155   34.1097    5.3302 O.2       8 UNK        -0.5275 
     54 N          32.2043   32.7058    4.3655 N.am      9 UNK        -0.4246 
     55 CA         32.7160   32.0468    5.5622 C.3       9 UNK         0.0261 
     56 CB         34.0632   32.6798    5.9517 C.3       9 UNK        -0.1959 
     57 C          32.8759   30.5545    5.2510 C.2       9 UNK         0.5033 
     58 O          32.8946   30.1802    4.0752 O.2       9 UNK        -0.5390 
     59 N          32.9955   29.7375    6.3067 N.am      10 UNK        -0.4215 
     60 CA         33.1716   28.2849    6.2384 C.3       10 UNK         0.0240 
     61 CB         33.0945   27.6894    7.6547 C.3       10 UNK        -0.1982 
     62 C          34.4779   27.8973    5.5263 C.2       10 UNK         0.4970 
     63 O          35.5501   27.9715    6.1296 O.2       10 UNK        -0.4916 
     64 N          34.3542   27.5256    4.2493 N.am      11 UNK        -0.4279 
     65 CA         35.4631   27.1876    3.3507 C.3       11 UNK         0.1003 
     66 C          36.0562   25.7599    3.5372 C.2       11 UNK         0.5709 
     67 N          35.4743   24.9001    4.3657 N.am      11 UNK        -0.7358 
     68 O          37.0752   25.4344    2.9324 O.2       11 UNK        -0.4999 
     69 C69        35.0962   27.5163    1.8791 C.3       12 UNK        -0.0954 
     70 S70        33.8286   26.4326    1.1309 S.3       12 UNK        -0.2268 
     71 C71        32.2729   27.3433    1.4298 C.3       12 UNK         0.0203 
     72 H72        24.1425   23.4576    2.5301 H         1 UNK         0.0888 
     73 H73        23.4856   22.0253    3.3243 H         1 UNK         0.0888 
     74 H74        23.8301   23.4790    4.2667 H         1 UNK         0.0888 
     75 H75        26.3085   23.2459    2.0469 H         1 UNK         0.3017 
     76 H76        27.9983   21.2667    3.3363 H         1 UNK         0.0873 
     77 H77        28.2459   23.2481    4.8844 H         1 UNK         0.0745 
     78 H78        28.7139   24.2459    3.5385 H         1 UNK         0.0745 
     79 H79        30.6404   24.0645    6.1570 H         1 UNK         0.0705 
     80 H80        32.1848   23.8915    5.3637 H         1 UNK         0.0705 
     81 H81        32.3417   24.9826    2.9256 H         1 UNK         0.1334 
     82 H82        30.5490   28.8886    2.8194 H         1 UNK         0.1417 
     83 H83        29.4884   26.1190    5.9062 H         1 UNK         0.1562 
     84 H84        29.2927   29.6384    4.8277 H         1 UNK         0.0748 
     85 H85        28.9146   28.5063    6.0945 H         1 UNK         0.0748 
     86 H86        28.1861   29.9919    2.8210 H         1 UNK         0.0940 
     87 H87        26.4682   29.8845    2.6386 H         1 UNK         0.0940 
     88 H88        28.3576   27.6192    1.8258 H         1 UNK         0.0703 
     89 H89        26.5897   26.4705    1.2650 H         1 UNK         0.3081 
     90 H90        24.0754   26.0520    1.3331 H         1 UNK         0.0719 
     91 H91        22.9089   27.8757   -0.8388 H         1 UNK         0.0809 
     92 H92        22.1862   26.3769   -0.2546 H         1 UNK         0.0809 
     93 H93        22.3441   27.7542    0.8221 H         1 UNK         0.0809 
     94 H94        24.6890   26.3079   -1.5578 H         1 UNK         0.2990 
     95 H95        25.8485   23.7102   -2.1818 H         1 UNK         0.0690 
     96 H96        27.3527   25.2571   -3.5706 H         1 UNK         0.0788 
     97 H97        27.1742   26.4767   -2.3140 H         1 UNK         0.0788 
     98 H98        25.7716   25.9187   -3.2184 H         1 UNK         0.0788 
     99 H99        27.7302   22.8119   -1.4575 H         1 UNK         0.2993 
    100 H100       29.8239   22.4729   -0.8352 H         1 UNK         0.0949 
    101 H101       31.5314   24.2874   -1.2279 H         1 UNK         0.0767 
    102 H102       31.3328   24.8186    0.4355 H         1 UNK         0.0767 
    103 H103       31.9892   23.2225    0.0950 H         1 UNK         0.0767 
    104 H104       29.8928   23.5807    1.8897 H         1 UNK         0.3013 
    105 H105       29.0610   27.4085   -0.3011 H         1 UNK         0.3121 
    106 H106       28.7125   29.2800   -2.3653 H         1 UNK         0.0774 
    107 H107       30.7298   28.1480   -3.3465 H         1 UNK         0.0815 
    108 H108       31.0350   27.3563   -1.8070 H         1 UNK         0.0815 
    109 H109       29.5733   26.9893   -2.7203 H         1 UNK         0.0815 
    110 H110       30.4571   29.8479    0.5209 H         1 UNK         0.2987 
    111 H111       31.5882   32.3232   -0.5818 H         1 UNK         0.0949 
    112 H112       33.7108   32.0455    0.5987 H         1 UNK         0.0806 
    113 H113       33.1955   30.5481    1.3484 H         1 UNK         0.0806 
    114 H114       33.5123   30.6065   -0.3860 H         1 UNK         0.0806 
    115 H115       31.9833   33.8616    1.2124 H         1 UNK         0.3010 
    116 H116       29.6914   34.0192    2.9138 H         1 UNK         0.0829 
    117 H117       30.7236   35.9974    1.8121 H         1 UNK         0.0813 
    118 H118       30.6939   36.2147    3.5520 H         1 UNK         0.0813 
    119 H119       32.1991   35.7797    2.7558 H         1 UNK         0.0813 
    120 H120       32.5054   32.2773    3.4997 H         1 UNK         0.3038 
    121 H121       32.0058   32.1511    6.3854 H         1 UNK         0.0769 
    122 H122       34.8052   32.5653    5.1602 H         1 UNK         0.0811 
    123 H123       34.4716   32.2192    6.8520 H         1 UNK         0.0811 
    124 H124       33.9541   33.7452    6.1552 H         1 UNK         0.0811 
    125 H125       33.0006   30.1435    7.2311 H         1 UNK         0.3204 
    126 H126       32.3388   27.8784    5.6675 H         1 UNK         0.0748 
    127 H127       32.1271   27.8889    8.1161 H         1 UNK         0.0771 
    128 H128       33.2210   26.6062    7.6279 H         1 UNK         0.0771 
    129 H129       33.8692   28.0926    8.3083 H         1 UNK         0.0771 
    130 H130       33.4354   27.5257    3.8274 H         1 UNK         0.2980 
    131 H131       36.2840   27.8593    3.6087 H         1 UNK         0.0545 
    132 H132       35.8721   23.9819    4.4832 H         1 UNK         0.3459 
    133 H133       34.6468   25.1640    4.8734 H         1 UNK         0.3459 
    134 H134       34.7746   28.5557    1.7999 H         1 UNK         0.0616 
    135 H135       35.9898   27.4469    1.2565 H         1 UNK         0.0616 
    136 H136       31.5989   27.1479    0.5958 H         1 UNK         0.0634 
    137 H137       32.4756   28.4123    1.4047 H         1 UNK         0.0634 
@<TRIPOS>BOND
     1    1    2 1    
     2    1   72 1    
     3    1   73 1    
     4    1   74 1    
     5    2    3 2    
     6    2    4 am   BACKBONE|DICT|INTERRES
     7    4    5 1    
     8    4   75 1    
     9    5    6 1    
    10    5   35 1    
    11    5   76 1    
    12    6    7 1    
    13    6   77 1    
    14    6   78 1    
    15    7    8 1    
    16    8    9 1    
    17    8   79 1    
    18    8   80 1    
    19    9   10 ar   
    20    9   14 ar   
    21   10   11 ar   
    22   10   81 1    
    23   11   12 ar   
    24   11   71 1    
    25   12   13 ar   
    26   12   82 1    
    27   13   14 ar   
    28   13   15 1    
    29   14   83 1    
    30   15   16 1    
    31   15   84 1    
    32   15   85 1    
    33   16   17 1    
    34   17   18 1    
    35   17   86 1    
    36   17   87 1    
    37   18   19 1    
    38   18   37 1    
    39   18   88 1    
    40   19   20 am   BACKBONE|DICT|INTERRES
    41   19   89 1    
    42   20   21 2    
    43   20   22 1    
    44   22   23 1    
    45   22   24 1    
    46   22   90 1    
    47   23   91 1    
    48   23   92 1    
    49   23   93 1    
    50   24   25 am   BACKBONE|DICT|INTERRES
    51   24   94 1    
    52   25   26 2    
    53   25   27 1    
    54   27   28 1    
    55   27   29 1    
    56   27   95 1    
    57   28   96 1    
    58   28   97 1    
    59   28   98 1    
    60   29   30 am   BACKBONE|DICT|INTERRES
    61   29   99 1    
    62   30   31 2    
    63   30   32 1    
    64   32   33 1    
    65   32   34 1    
    66   32  100 1    
    67   33  101 1    
    68   33  102 1    
    69   33  103 1    
    70   34   35 am   BACKBONE|DICT|INTERRES
    71   34  104 1    
    72   35   36 2    
    73   37   38 2    
    74   37   39 am   BACKBONE|DICT|INTERRES
    75   39   40 1    
    76   39  105 1    
    77   40   41 1    
    78   40   42 1    
    79   40  106 1    
    80   41  107 1    
    81   41  108 1    
    82   41  109 1    
    83   42   43 2    
    84   42   44 am   BACKBONE|DICT|INTERRES
    85   44   45 1    
    86   44  110 1    
    87   45   46 1    
    88   45   47 1    
    89   45  111 1    
    90   46  112 1    
    91   46  113 1    
    92   46  114 1    
    93   47   48 2    
    94   47   49 am   BACKBONE|DICT|INTERRES
    95   49   50 1    
    96   49  115 1    
    97   50   51 1    
    98   50   52 1    
    99   50  116 1    
   100   51  117 1    
   101   51  118 1    
   102   51  119 1    
   103   52   53 2    
   104   52   54 am   BACKBONE|DICT|INTERRES
   105   54   55 1    
   106   54  120 1    
   107   55   56 1    
   108   55   57 1    
   109   55  121 1    
   110   56  122 1    
   111   56  123 1    
   112   56  124 1    
   113   57   58 2    
   114   57   59 am   BACKBONE|DICT|INTERRES
   115   59   60 1    
   116   59  125 1    
   117   60   61 1    
   118   60   62 1    
   119   60  126 1    
   120   61  127 1    
   121   61  128 1    
   122   61  129 1    
   123   62   63 2    
   124   62   64 am   BACKBONE|DICT|INTERRES
   125   64   65 1    
   126   64  130 1    
   127   65   66 1    
   128   65   69 1    
   129   65  131 1    
   130   66   67 am   BACKBONE|DICT|INTERRES
   131   66   68 2    
   132   67  132 1    
   133   67  133 1    
   134   69   70 1    
   135   69  134 1    
   136   69  135 1    
   137   70   71 1    
   138   71  136 1    
   139   71  137 1    
@<TRIPOS>SUBSTRUCTURE
     1 UNK         1 GROUP             0       ****    0 ROOT    
