@<TRIPOS>MOLECULE
3R136
137   139    1
SMALL
USER_CHARGES


@<TRIPOS>ATOM
      1 CA         35.0141   26.3642   -0.5851 C.3       0 UNK        -0.1979 
      2 C          33.6405   26.2850    0.0626 C.2       0 UNK         0.4864 
      3 O          33.3119   27.1207    0.9025 O.2       0 UNK        -0.5359 
      4 N          32.8361   25.2893   -0.3273 N.am      1 UNK        -0.4318 
      5 CA         31.4823   25.0294    0.1871 C.3       1 UNK         0.0824 
      6 C6         30.9936   23.6146   -0.2247 C.3       12 UNK        -0.0944 
      7 S7         32.1981   22.3052    0.2031 S.3       12 UNK        -0.2672 
      8 C8         31.2222   21.1638    1.2342 C.3       12 UNK         0.0333 
      9 C9         30.6027   21.8367    2.4518 C.ar      12 UNK        -0.0807 
     10 C10        31.3928   22.5641    3.3487 C.ar      12 UNK        -0.0894 
     11 C11        30.8117   23.1934    4.4528 C.ar      12 UNK        -0.0804 
     12 C12        29.4392   23.0626    4.6785 C.ar      12 UNK        -0.0824 
     13 C13        28.6399   22.3405    3.7881 C.ar      12 UNK        -0.0762 
     14 C14        29.2273   21.7296    2.6777 C.ar      12 UNK        -0.0782 
     15 C15        27.1400   22.2285    4.0112 C.3       12 UNK         0.0230 
     16 S16        26.2422   23.5713    3.1707 S.3       12 UNK        -0.2608 
     17 C17        26.5892   24.9859    4.2715 C.3       12 UNK        -0.0989 
     18 CA         27.6209   25.9896    3.6775 C.3       5 UNK         0.0716 
     19 N          27.2102   26.5476    2.3778 N.am      5 UNK        -0.4135 
     20 C          26.0775   27.2205    2.1190 C.2       4 UNK         0.5031 
     21 O          25.2865   27.5820    2.9902 O.2       4 UNK        -0.5229 
     22 CA         25.7596   27.5767    0.6618 C.3       4 UNK         0.0329 
     23 CB         26.1217   29.0417    0.3777 C.3       4 UNK        -0.2001 
     24 N          26.4502   26.7240   -0.3058 N.am      4 UNK        -0.4303 
     25 C          25.8764   26.1677   -1.3832 C.2       3 UNK         0.5044 
     26 O          24.6627   26.1815   -1.5973 O.2       3 UNK        -0.5152 
     27 CA         26.8244   25.5057   -2.4100 C.3       3 UNK         0.0319 
     28 CB         26.2563   25.5191   -3.8451 C.3       3 UNK        -0.2001 
     29 N          28.1813   26.0694   -2.3781 N.am      3 UNK        -0.4354 
     30 C          28.5389   27.3525   -2.5575 C.2       2 UNK         0.4964 
     31 O          27.7791   28.2187   -2.9919 O.2       2 UNK        -0.5047 
     32 CA         29.9727   27.7500   -2.1456 C.3       2 UNK         0.0288 
     33 CB         29.9894   29.0591   -1.3277 C.3       2 UNK        -0.2113 
     34 N          30.7369   26.7065   -1.4417 N.am      2 UNK        -0.4145 
     35 C          30.4612   26.0951   -0.2748 C.2       1 UNK         0.5006 
     36 O          29.4386   26.3007    0.3889 O.2       1 UNK        -0.5103 
     37 C          28.0314   27.0367    4.7415 C.2       5 UNK         0.5055 
     38 O          28.4924   26.6350    5.8112 O.2       5 UNK        -0.5220 
     39 N          27.8764   28.3375    4.4629 N.am      6 UNK        -0.4450 
     40 CA         28.2243   29.4332    5.3658 C.3       6 UNK         0.0367 
     41 CB         27.2196   29.5428    6.5312 C.3       6 UNK        -0.1929 
     42 C          28.3201   30.7473    4.5878 C.2       6 UNK         0.5070 
     43 O          29.3861   31.3623    4.5722 O.2       6 UNK        -0.5237 
     44 N          27.2117   31.1519    3.9493 N.am      7 UNK        -0.4739 
     45 CA         27.0838   32.4074    3.2011 C.3       7 UNK         0.0276 
     46 CB         25.6228   32.5926    2.7562 C.3       7 UNK        -0.1927 
     47 C          28.0509   32.4664    2.0058 C.2       7 UNK         0.5013 
     48 O          27.8224   31.7830    1.0080 O.2       7 UNK        -0.5193 
     49 N          29.1298   33.2478    2.1619 N.am      8 UNK        -0.4253 
     50 CA         30.2702   33.3861    1.2449 C.3       8 UNK         0.0242 
     51 CB         29.8297   34.0023   -0.1010 C.3       8 UNK        -0.2000 
     52 C          31.0917   32.0903    1.0617 C.2       8 UNK         0.4948 
     53 O          31.8277   31.9788    0.0792 O.2       8 UNK        -0.5275 
     54 N          30.9768   31.1467    2.0063 N.am      9 UNK        -0.4246 
     55 CA         31.7420   29.9017    2.0307 C.3       9 UNK         0.0261 
     56 CB         30.8845   28.8020    2.6796 C.3       9 UNK        -0.1959 
     57 C          33.0589   30.0962    2.7976 C.2       9 UNK         0.5033 
     58 O          33.1826   31.0212    3.6045 O.2       9 UNK        -0.5390 
     59 N          34.0099   29.1884    2.5569 N.am      10 UNK        -0.4215 
     60 CA         35.3111   29.1269    3.2309 C.3       10 UNK         0.0240 
     61 CB         36.3176   28.4361    2.2951 C.3       10 UNK        -0.1982 
     62 C          35.2550   28.4048    4.5923 C.2       10 UNK         0.4970 
     63 O          36.2788   28.3398    5.2742 O.2       10 UNK        -0.4916 
     64 N          34.0859   27.8535    4.9433 N.am      11 UNK        -0.4279 
     65 CA         33.7864   27.1070    6.1727 C.3       11 UNK         0.1003 
     66 C          34.1417   27.8780    7.4748 C.2       11 UNK         0.5709 
     67 N          34.6844   27.1945    8.4735 N.am      11 UNK        -0.7358 
     68 O          33.8859   29.0741    7.6022 O.2       11 UNK        -0.4999 
     69 C69        32.2972   26.6759    6.2036 C.3       12 UNK        -0.0954 
     70 S70        31.7846   25.7382    4.7246 S.3       12 UNK        -0.2268 
     71 C71        31.6529   24.0494    5.3831 C.3       12 UNK         0.0203 
     72 H72        35.2451   27.3948   -0.8534 H         1 UNK         0.0888 
     73 H73        35.7768   26.0117    0.1081 H         1 UNK         0.0888 
     74 H74        35.0705   25.7596   -1.4900 H         1 UNK         0.0888 
     75 H75        33.1819   24.6068   -0.9874 H         1 UNK         0.3017 
     76 H76        31.5233   25.0763    1.2781 H         1 UNK         0.0873 
     77 H77        30.0303   23.3967    0.2404 H         1 UNK         0.0745 
     78 H78        30.8256   23.5618   -1.3022 H         1 UNK         0.0745 
     79 H79        30.4550   20.7042    0.6091 H         1 UNK         0.0705 
     80 H80        31.8700   20.3538    1.5715 H         1 UNK         0.0705 
     81 H81        32.4549   22.6647    3.1707 H         1 UNK         0.1334 
     82 H82        28.9914   23.5510    5.5329 H         1 UNK         0.1417 
     83 H83        28.6078   21.1756    1.9852 H         1 UNK         0.1562 
     84 H84        26.9065   22.2289    5.0770 H         1 UNK         0.0748 
     85 H85        26.7800   21.2732    3.6260 H         1 UNK         0.0748 
     86 H86        26.9267   24.6046    5.2361 H         1 UNK         0.0940 
     87 H87        25.6437   25.4864    4.4852 H         1 UNK         0.0940 
     88 H88        28.5364   25.4363    3.4634 H         1 UNK         0.0703 
     89 H89        27.8527   26.3501    1.6180 H         1 UNK         0.3081 
     90 H90        24.6789   27.4658    0.5514 H         1 UNK         0.0719 
     91 H91        25.6101   29.7129    1.0670 H         1 UNK         0.0809 
     92 H92        27.1926   29.2186    0.4818 H         1 UNK         0.0809 
     93 H93        25.8343   29.3342   -0.6324 H         1 UNK         0.0809 
     94 H94        27.4567   26.6484   -0.2139 H         1 UNK         0.2990 
     95 H95        26.9197   24.4635   -2.1017 H         1 UNK         0.0690 
     96 H96        26.9435   25.0488   -4.5483 H         1 UNK         0.0788 
     97 H97        26.0608   26.5335   -4.1941 H         1 UNK         0.0788 
     98 H98        25.3149   24.9710   -3.8987 H         1 UNK         0.0788 
     99 H99        28.8960   25.4450   -2.0346 H         1 UNK         0.2993 
    100 H100       30.5023   27.9390   -3.0807 H         1 UNK         0.0949 
    101 H101       29.4978   28.9448   -0.3615 H         1 UNK         0.0767 
    102 H102       31.0103   29.3933   -1.1456 H         1 UNK         0.0767 
    103 H103       29.4819   29.8683   -1.8543 H         1 UNK         0.0767 
    104 H104       31.5939   26.4290   -1.8998 H         1 UNK         0.3013 
    105 H105       27.4944   28.5956    3.5642 H         1 UNK         0.3121 
    106 H106       29.2136   29.2332    5.7840 H         1 UNK         0.0774 
    107 H107       26.1923   29.6337    6.1771 H         1 UNK         0.0815 
    108 H108       27.2690   28.6704    7.1827 H         1 UNK         0.0815 
    109 H109       27.4326   30.4153    7.1503 H         1 UNK         0.0815 
    110 H110       26.3792   30.5840    4.0153 H         1 UNK         0.2987 
    111 H111       27.3247   33.2253    3.8840 H         1 UNK         0.0949 
    112 H112       24.9489   32.6352    3.6120 H         1 UNK         0.0806 
    113 H113       25.5008   33.5247    2.2029 H         1 UNK         0.0806 
    114 H114       25.2882   31.7848    2.1059 H         1 UNK         0.0806 
    115 H115       29.2342   33.7260    3.0468 H         1 UNK         0.3010 
    116 H116       30.9485   34.0959    1.7206 H         1 UNK         0.0829 
    117 H117       29.2160   33.3121   -0.6808 H         1 UNK         0.0813 
    118 H118       29.2572   34.9176    0.0485 H         1 UNK         0.0813 
    119 H119       30.6934   34.2595   -0.7153 H         1 UNK         0.0813 
    120 H120       30.4154   31.3433    2.8291 H         1 UNK         0.3038 
    121 H121       31.9760   29.5961    1.0092 H         1 UNK         0.0769 
    122 H122       29.9048   28.7305    2.2071 H         1 UNK         0.0811 
    123 H123       30.7372   28.9791    3.7451 H         1 UNK         0.0811 
    124 H124       31.3563   27.8252    2.5751 H         1 UNK         0.0811 
    125 H125       33.7970   28.4291    1.9035 H         1 UNK         0.3204 
    126 H126       35.6609   30.1446    3.4164 H         1 UNK         0.0748 
    127 H127       36.0527   27.3922    2.1252 H         1 UNK         0.0771 
    128 H128       36.3679   28.9335    1.3263 H         1 UNK         0.0771 
    129 H129       37.3224   28.4520    2.7192 H         1 UNK         0.0771 
    130 H130       33.3124   27.9518    4.3049 H         1 UNK         0.2980 
    131 H131       34.3994   26.2045    6.1391 H         1 UNK         0.0545 
    132 H132       34.9057   27.6753    9.3314 H         1 UNK         0.3459 
    133 H133       34.8858   26.2107    8.3851 H         1 UNK         0.3459 
    134 H134       31.6499   27.5528    6.2705 H         1 UNK         0.0616 
    135 H135       32.0899   26.0844    7.0969 H         1 UNK         0.0616 
    136 H136       31.1997   24.0701    6.3754 H         1 UNK         0.0634 
    137 H137       32.6507   23.6243    5.5008 H         1 UNK         0.0634 
@<TRIPOS>BOND
     1    1    2 1    
     2    1   72 1    
     3    1   73 1    
     4    1   74 1    
     5    2    3 2    
     6    2    4 am   BACKBONE|DICT|INTERRES
     7    4    5 1    
     8    4   75 1    
     9    5    6 1    
    10    5   35 1    
    11    5   76 1    
    12    6    7 1    
    13    6   77 1    
    14    6   78 1    
    15    7    8 1    
    16    8    9 1    
    17    8   79 1    
    18    8   80 1    
    19    9   10 ar   
    20    9   14 ar   
    21   10   11 ar   
    22   10   81 1    
    23   11   12 ar   
    24   11   71 1    
    25   12   13 ar   
    26   12   82 1    
    27   13   14 ar   
    28   13   15 1    
    29   14   83 1    
    30   15   16 1    
    31   15   84 1    
    32   15   85 1    
    33   16   17 1    
    34   17   18 1    
    35   17   86 1    
    36   17   87 1    
    37   18   19 1    
    38   18   37 1    
    39   18   88 1    
    40   19   20 am   BACKBONE|DICT|INTERRES
    41   19   89 1    
    42   20   21 2    
    43   20   22 1    
    44   22   23 1    
    45   22   24 1    
    46   22   90 1    
    47   23   91 1    
    48   23   92 1    
    49   23   93 1    
    50   24   25 am   BACKBONE|DICT|INTERRES
    51   24   94 1    
    52   25   26 2    
    53   25   27 1    
    54   27   28 1    
    55   27   29 1    
    56   27   95 1    
    57   28   96 1    
    58   28   97 1    
    59   28   98 1    
    60   29   30 am   BACKBONE|DICT|INTERRES
    61   29   99 1    
    62   30   31 2    
    63   30   32 1    
    64   32   33 1    
    65   32   34 1    
    66   32  100 1    
    67   33  101 1    
    68   33  102 1    
    69   33  103 1    
    70   34   35 am   BACKBONE|DICT|INTERRES
    71   34  104 1    
    72   35   36 2    
    73   37   38 2    
    74   37   39 am   BACKBONE|DICT|INTERRES
    75   39   40 1    
    76   39  105 1    
    77   40   41 1    
    78   40   42 1    
    79   40  106 1    
    80   41  107 1    
    81   41  108 1    
    82   41  109 1    
    83   42   43 2    
    84   42   44 am   BACKBONE|DICT|INTERRES
    85   44   45 1    
    86   44  110 1    
    87   45   46 1    
    88   45   47 1    
    89   45  111 1    
    90   46  112 1    
    91   46  113 1    
    92   46  114 1    
    93   47   48 2    
    94   47   49 am   BACKBONE|DICT|INTERRES
    95   49   50 1    
    96   49  115 1    
    97   50   51 1    
    98   50   52 1    
    99   50  116 1    
   100   51  117 1    
   101   51  118 1    
   102   51  119 1    
   103   52   53 2    
   104   52   54 am   BACKBONE|DICT|INTERRES
   105   54   55 1    
   106   54  120 1    
   107   55   56 1    
   108   55   57 1    
   109   55  121 1    
   110   56  122 1    
   111   56  123 1    
   112   56  124 1    
   113   57   58 2    
   114   57   59 am   BACKBONE|DICT|INTERRES
   115   59   60 1    
   116   59  125 1    
   117   60   61 1    
   118   60   62 1    
   119   60  126 1    
   120   61  127 1    
   121   61  128 1    
   122   61  129 1    
   123   62   63 2    
   124   62   64 am   BACKBONE|DICT|INTERRES
   125   64   65 1    
   126   64  130 1    
   127   65   66 1    
   128   65   69 1    
   129   65  131 1    
   130   66   67 am   BACKBONE|DICT|INTERRES
   131   66   68 2    
   132   67  132 1    
   133   67  133 1    
   134   69   70 1    
   135   69  134 1    
   136   69  135 1    
   137   70   71 1    
   138   71  136 1    
   139   71  137 1    
@<TRIPOS>SUBSTRUCTURE
     1 UNK         1 GROUP             0       ****    0 ROOT    
