@<TRIPOS>MOLECULE
3R136
137   139    1
SMALL
USER_CHARGES


@<TRIPOS>ATOM
      1 CA         30.7064   22.9216   -4.0569 C.3       0 UNK        -0.1979 
      2 C          29.9805   23.0822   -2.7304 C.2       0 UNK         0.4864 
      3 O          29.5622   24.1888   -2.3902 O.2       0 UNK        -0.5359 
      4 N          29.8110   21.9869   -1.9779 N.am      1 UNK        -0.4318 
      5 CA         29.1654   21.9348   -0.6587 C.3       1 UNK         0.0824 
      6 C6         29.6600   20.6968    0.1372 C.3       12 UNK        -0.0944 
      7 S7         29.5785   20.9230    1.9477 S.3       12 UNK        -0.2672 
      8 C8         31.3302   21.1675    2.3880 C.3       12 UNK         0.0333 
      9 C9         31.7202   22.6385    2.3590 C.ar      12 UNK        -0.0807 
     10 C10        31.7919   23.3639    3.5494 C.ar      12 UNK        -0.0894 
     11 C11        32.1670   24.7106    3.5531 C.ar      12 UNK        -0.0804 
     12 C12        32.4508   25.3407    2.3319 C.ar      12 UNK        -0.0824 
     13 C13        32.3720   24.6272    1.1264 C.ar      12 UNK        -0.0762 
     14 C14        32.0222   23.2734    1.1531 C.ar      12 UNK        -0.0782 
     15 C15        32.6818   25.2799   -0.2198 C.3       12 UNK         0.0230 
     16 S16        31.9766   26.9465   -0.4461 S.3       12 UNK        -0.2608 
     17 C17        30.1905   26.6812   -0.1576 C.3       12 UNK        -0.0989 
     18 CA         29.5029   27.9361    0.4327 C.3       5 UNK         0.0716 
     19 N          28.0450   27.8686    0.3213 N.am      5 UNK        -0.4135 
     20 C          27.2007   28.8608    0.6411 C.2       4 UNK         0.5031 
     21 O          27.5660   29.9839    0.9939 O.2       4 UNK        -0.5229 
     22 CA         25.6976   28.5313    0.6196 C.3       4 UNK         0.0329 
     23 CB         25.0678   29.0008   -0.7007 C.3       4 UNK        -0.2001 
     24 N          25.3814   27.1122    0.8278 N.am      4 UNK        -0.4303 
     25 C          25.7187   26.3681    1.8902 C.2       3 UNK         0.5044 
     26 O          26.4033   26.7873    2.8233 O.2       3 UNK        -0.5152 
     27 CA         25.2592   24.8988    1.8994 C.3       3 UNK         0.0319 
     28 CB         23.7634   24.7835    2.2517 C.3       3 UNK        -0.2001 
     29 N          25.5923   24.1490    0.6779 N.am      3 UNK        -0.4354 
     30 C          25.1339   24.3152   -0.5726 C.2       2 UNK         0.4964 
     31 O          24.3045   25.1723   -0.8835 O.2       2 UNK        -0.5047 
     32 CA         25.7255   23.3981   -1.6617 C.3       2 UNK         0.0288 
     33 CB         25.5905   24.0058   -3.0711 C.3       2 UNK        -0.2113 
     34 N          27.1394   23.0978   -1.4209 N.am      2 UNK        -0.4145 
     35 C          27.6222   22.0399   -0.7582 C.2       1 UNK         0.5006 
     36 O          26.8978   21.1847   -0.2464 O.2       1 UNK        -0.5103 
     37 C          29.9781   28.2470    1.8691 C.2       5 UNK         0.5055 
     38 O          30.9785   28.9460    2.0173 O.2       5 UNK        -0.5220 
     39 N          29.2399   27.7981    2.8985 N.am      6 UNK        -0.4450 
     40 CA         29.5525   28.0930    4.2994 C.3       6 UNK         0.0367 
     41 CB         28.6272   27.2972    5.2317 C.3       6 UNK        -0.1929 
     42 C          29.5073   29.5928    4.6265 C.2       6 UNK         0.5070 
     43 O          30.3649   30.0746    5.3672 O.2       6 UNK        -0.5237 
     44 N          28.5394   30.3032    4.0333 N.am      7 UNK        -0.4739 
     45 CA         28.4213   31.7562    4.1169 C.3       7 UNK         0.0276 
     46 CB         26.9789   32.1774    3.7917 C.3       7 UNK        -0.1927 
     47 C          29.4218   32.4592    3.1878 C.2       7 UNK         0.5013 
     48 O          30.0784   33.4045    3.6232 O.2       7 UNK        -0.5193 
     49 N          29.5254   31.9883    1.9352 N.am      8 UNK        -0.4253 
     50 CA         30.3630   32.5904    0.8922 C.3       8 UNK         0.0242 
     51 CB         30.0356   31.9637   -0.4718 C.3       8 UNK        -0.2000 
     52 C          31.8718   32.5088    1.1806 C.2       8 UNK         0.4948 
     53 O          32.5720   33.5038    0.9888 O.2       8 UNK        -0.5275 
     54 N          32.3464   31.3444    1.6448 N.am      9 UNK        -0.4246 
     55 CA         33.7417   31.1219    2.0364 C.3       9 UNK         0.0261 
     56 CB         34.0869   29.6315    1.8704 C.3       9 UNK        -0.1959 
     57 C          34.0356   31.5787    3.4760 C.2       9 UNK         0.5033 
     58 O          35.2102   31.6586    3.8390 O.2       9 UNK        -0.5390 
     59 N          32.9819   31.8543    4.2622 N.am      10 UNK        -0.4215 
     60 CA         32.9933   32.2146    5.6840 C.3       10 UNK         0.0240 
     61 CB         33.6274   33.6061    5.8953 C.3       10 UNK        -0.1982 
     62 C          33.6398   31.1108    6.5415 C.2       10 UNK         0.4970 
     63 O          34.6267   31.3614    7.2372 O.2       10 UNK        -0.4916 
     64 N          33.0808   29.8981    6.4431 N.am      11 UNK        -0.4279 
     65 CA         33.5160   28.7102    7.1911 C.3       11 UNK         0.1003 
     66 C          33.3362   28.8756    8.7265 C.2       11 UNK         0.5709 
     67 N          34.2430   28.3219    9.5203 N.am      11 UNK        -0.7358 
     68 O          32.3641   29.4600    9.2025 O.2       11 UNK        -0.4999 
     69 C69        32.7906   27.4310    6.7030 C.3       12 UNK        -0.0954 
     70 S70        33.1926   26.9612    4.9868 S.3       12 UNK        -0.2268 
     71 C71        32.2072   25.4265    4.9035 C.3       12 UNK         0.0203 
     72 H72        31.5892   23.5599   -4.0788 H         1 UNK         0.0888 
     73 H73        31.0261   21.8936   -4.2256 H         1 UNK         0.0888 
     74 H74        30.0534   23.2143   -4.8786 H         1 UNK         0.0888 
     75 H75        30.1355   21.0988   -2.3342 H         1 UNK         0.3017 
     76 H76        29.4871   22.8257   -0.1150 H         1 UNK         0.0873 
     77 H77        29.1006   19.7992   -0.1335 H         1 UNK         0.0745 
     78 H78        30.6934   20.4708   -0.1286 H         1 UNK         0.0745 
     79 H79        31.4883   20.7618    3.3885 H         1 UNK         0.0705 
     80 H80        31.9817   20.5892    1.7317 H         1 UNK         0.0705 
     81 H81        31.5555   22.8737    4.4844 H         1 UNK         0.1334 
     82 H82        32.7227   26.3870    2.3104 H         1 UNK         0.1417 
     83 H83        31.9774   22.7102    0.2311 H         1 UNK         0.1562 
     84 H84        32.3234   24.6549   -1.0395 H         1 UNK         0.0748 
     85 H85        33.7646   25.3433   -0.3329 H         1 UNK         0.0748 
     86 H86        30.0240   25.8104    0.4785 H         1 UNK         0.0940 
     87 H87        29.7465   26.4402   -1.1238 H         1 UNK         0.0940 
     88 H88        29.8015   28.7834   -0.1844 H         1 UNK         0.0703 
     89 H89        27.6502   26.9843    0.0399 H         1 UNK         0.3081 
     90 H90        25.2371   29.0891    1.4374 H         1 UNK         0.0719 
     91 H91        25.2678   30.0591   -0.8756 H         1 UNK         0.0809 
     92 H92        25.4613   28.4476   -1.5545 H         1 UNK         0.0809 
     93 H93        23.9850   28.8748   -0.6903 H         1 UNK         0.0809 
     94 H94        24.8420   26.6463    0.1009 H         1 UNK         0.2990 
     95 H95        25.8153   24.4082    2.7001 H         1 UNK         0.0690 
     96 H96        23.5525   25.2627    3.2088 H         1 UNK         0.0788 
     97 H97        23.4568   23.7411    2.3378 H         1 UNK         0.0788 
     98 H98        23.1255   25.2590    1.5062 H         1 UNK         0.0788 
     99 H99        26.2690   23.4098    0.8102 H         1 UNK         0.2993 
    100 H100       25.1475   22.4716   -1.6410 H         1 UNK         0.0949 
    101 H101       24.5444   24.1781   -3.3285 H         1 UNK         0.0767 
    102 H102       26.1097   24.9621   -3.1487 H         1 UNK         0.0767 
    103 H103       26.0012   23.3396   -3.8301 H         1 UNK         0.0767 
    104 H104       27.8223   23.7432   -1.8130 H         1 UNK         0.3013 
    105 H105       28.3795   27.2893    2.7213 H         1 UNK         0.3121 
    106 H106       30.5746   27.7664    4.4715 H         1 UNK         0.0774 
    107 H107       28.6829   26.2274    5.0303 H         1 UNK         0.0815 
    108 H108       28.9063   27.4472    6.2754 H         1 UNK         0.0815 
    109 H109       27.5861   27.6043    5.1256 H         1 UNK         0.0815 
    110 H110       27.9116   29.8284    3.3991 H         1 UNK         0.2987 
    111 H111       28.6413   32.0670    5.1411 H         1 UNK         0.0949 
    112 H112       26.6850   31.8849    2.7829 H         1 UNK         0.0806 
    113 H113       26.2699   31.7312    4.4891 H         1 UNK         0.0806 
    114 H114       26.8647   33.2600    3.8630 H         1 UNK         0.0806 
    115 H115       28.9242   31.2175    1.6549 H         1 UNK         0.3010 
    116 H116       30.0979   33.6488    0.8423 H         1 UNK         0.0829 
    117 H117       30.3483   30.9223   -0.5216 H         1 UNK         0.0813 
    118 H118       28.9678   32.0073   -0.6876 H         1 UNK         0.0813 
    119 H119       30.5515   32.4929   -1.2741 H         1 UNK         0.0813 
    120 H120       31.7182   30.5476    1.7598 H         1 UNK         0.3038 
    121 H121       34.3920   31.6927    1.3702 H         1 UNK         0.0769 
    122 H122       33.5404   29.0090    2.5797 H         1 UNK         0.0811 
    123 H123       35.1497   29.4563    2.0411 H         1 UNK         0.0811 
    124 H124       33.8553   29.2764    0.8661 H         1 UNK         0.0811 
    125 H125       32.0637   31.7539    3.8520 H         1 UNK         0.3204 
    126 H126       31.9494   32.2804    5.9950 H         1 UNK         0.0748 
    127 H127       33.5559   33.9112    6.9400 H         1 UNK         0.0771 
    128 H128       34.6837   33.6197    5.6247 H         1 UNK         0.0771 
    129 H129       33.1191   34.3649    5.3001 H         1 UNK         0.0771 
    130 H130       32.2235   29.8046    5.9069 H         1 UNK         0.2980 
    131 H131       34.5832   28.5876    6.9959 H         1 UNK         0.0545 
    132 H132       35.0372   27.8296    9.1417 H         1 UNK         0.3459 
    133 H133       34.1352   28.4050   10.5191 H         1 UNK         0.3459 
    134 H134       31.7092   27.5535    6.7902 H         1 UNK         0.0616 
    135 H135       33.0545   26.5828    7.3380 H         1 UNK         0.0616 
    136 H136       31.1818   25.6414    5.2034 H         1 UNK         0.0634 
    137 H137       32.6063   24.7429    5.6547 H         1 UNK         0.0634 
@<TRIPOS>BOND
     1    1    2 1    
     2    1   72 1    
     3    1   73 1    
     4    1   74 1    
     5    2    3 2    
     6    2    4 am   BACKBONE|DICT|INTERRES
     7    4    5 1    
     8    4   75 1    
     9    5    6 1    
    10    5   35 1    
    11    5   76 1    
    12    6    7 1    
    13    6   77 1    
    14    6   78 1    
    15    7    8 1    
    16    8    9 1    
    17    8   79 1    
    18    8   80 1    
    19    9   10 ar   
    20    9   14 ar   
    21   10   11 ar   
    22   10   81 1    
    23   11   12 ar   
    24   11   71 1    
    25   12   13 ar   
    26   12   82 1    
    27   13   14 ar   
    28   13   15 1    
    29   14   83 1    
    30   15   16 1    
    31   15   84 1    
    32   15   85 1    
    33   16   17 1    
    34   17   18 1    
    35   17   86 1    
    36   17   87 1    
    37   18   19 1    
    38   18   37 1    
    39   18   88 1    
    40   19   20 am   BACKBONE|DICT|INTERRES
    41   19   89 1    
    42   20   21 2    
    43   20   22 1    
    44   22   23 1    
    45   22   24 1    
    46   22   90 1    
    47   23   91 1    
    48   23   92 1    
    49   23   93 1    
    50   24   25 am   BACKBONE|DICT|INTERRES
    51   24   94 1    
    52   25   26 2    
    53   25   27 1    
    54   27   28 1    
    55   27   29 1    
    56   27   95 1    
    57   28   96 1    
    58   28   97 1    
    59   28   98 1    
    60   29   30 am   BACKBONE|DICT|INTERRES
    61   29   99 1    
    62   30   31 2    
    63   30   32 1    
    64   32   33 1    
    65   32   34 1    
    66   32  100 1    
    67   33  101 1    
    68   33  102 1    
    69   33  103 1    
    70   34   35 am   BACKBONE|DICT|INTERRES
    71   34  104 1    
    72   35   36 2    
    73   37   38 2    
    74   37   39 am   BACKBONE|DICT|INTERRES
    75   39   40 1    
    76   39  105 1    
    77   40   41 1    
    78   40   42 1    
    79   40  106 1    
    80   41  107 1    
    81   41  108 1    
    82   41  109 1    
    83   42   43 2    
    84   42   44 am   BACKBONE|DICT|INTERRES
    85   44   45 1    
    86   44  110 1    
    87   45   46 1    
    88   45   47 1    
    89   45  111 1    
    90   46  112 1    
    91   46  113 1    
    92   46  114 1    
    93   47   48 2    
    94   47   49 am   BACKBONE|DICT|INTERRES
    95   49   50 1    
    96   49  115 1    
    97   50   51 1    
    98   50   52 1    
    99   50  116 1    
   100   51  117 1    
   101   51  118 1    
   102   51  119 1    
   103   52   53 2    
   104   52   54 am   BACKBONE|DICT|INTERRES
   105   54   55 1    
   106   54  120 1    
   107   55   56 1    
   108   55   57 1    
   109   55  121 1    
   110   56  122 1    
   111   56  123 1    
   112   56  124 1    
   113   57   58 2    
   114   57   59 am   BACKBONE|DICT|INTERRES
   115   59   60 1    
   116   59  125 1    
   117   60   61 1    
   118   60   62 1    
   119   60  126 1    
   120   61  127 1    
   121   61  128 1    
   122   61  129 1    
   123   62   63 2    
   124   62   64 am   BACKBONE|DICT|INTERRES
   125   64   65 1    
   126   64  130 1    
   127   65   66 1    
   128   65   69 1    
   129   65  131 1    
   130   66   67 am   BACKBONE|DICT|INTERRES
   131   66   68 2    
   132   67  132 1    
   133   67  133 1    
   134   69   70 1    
   135   69  134 1    
   136   69  135 1    
   137   70   71 1    
   138   71  136 1    
   139   71  137 1    
@<TRIPOS>SUBSTRUCTURE
     1 UNK         1 GROUP             0       ****    0 ROOT    
