@<TRIPOS>MOLECULE
3R136
137   139    1
SMALL
USER_CHARGES


@<TRIPOS>ATOM
      1 CA         26.9245   22.7463   -4.6793 C.3       0 UNK        -0.1979 
      2 C          27.5574   23.1500   -3.3571 C.2       0 UNK         0.4864 
      3 O          27.2605   24.2282   -2.8402 O.2       0 UNK        -0.5359 
      4 N          28.4136   22.2890   -2.7871 N.am      1 UNK        -0.4318 
      5 CA         29.1389   22.5411   -1.5329 C.3       1 UNK         0.0824 
      6 C6         30.2124   21.4576   -1.2482 C.3       12 UNK        -0.0944 
      7 S7         31.7941   22.1859   -0.7017 S.3       12 UNK        -0.2672 
      8 C8         32.0761   21.3962    0.9146 C.3       12 UNK         0.0333 
      9 C9         31.7063   22.3056    2.0783 C.ar      12 UNK        -0.0807 
     10 C10        32.5548   23.3604    2.4309 C.ar      12 UNK        -0.0894 
     11 C11        32.2766   24.1509    3.5490 C.ar      12 UNK        -0.0804 
     12 C12        31.1500   23.8715    4.3240 C.ar      12 UNK        -0.0824 
     13 C13        30.2646   22.8523    3.9576 C.ar      12 UNK        -0.0762 
     14 C14        30.5524   22.0685    2.8338 C.ar      12 UNK        -0.0782 
     15 C15        29.0134   22.5740    4.7864 C.3       12 UNK         0.0230 
     16 S16        28.1247   24.0868    5.2976 S.3       12 UNK        -0.2608 
     17 C17        27.5772   24.7589    3.6925 C.3       12 UNK        -0.0989 
     18 CA         28.4201   25.9691    3.2095 C.3       5 UNK         0.0716 
     19 N          28.2140   26.1977    1.7780 N.am      5 UNK        -0.4135 
     20 C          28.6884   27.1928    1.0152 C.2       4 UNK         0.5031 
     21 O          29.4094   28.1023    1.4281 O.2       4 UNK        -0.5229 
     22 CA         28.3098   27.1686   -0.4789 C.3       4 UNK         0.0329 
     23 CB         29.4977   26.6671   -1.3141 C.3       4 UNK        -0.2001 
     24 N          27.1274   26.3532   -0.7807 N.am      4 UNK        -0.4303 
     25 C          25.8704   26.6643   -0.4282 C.2       3 UNK         0.5044 
     26 O          25.5576   27.7052    0.1485 O.2       3 UNK        -0.5152 
     27 CA         24.7811   25.6290   -0.7500 C.3       3 UNK         0.0319 
     28 CB         24.2596   25.8075   -2.1853 C.3       3 UNK        -0.2001 
     29 N          25.2707   24.2610   -0.5645 N.am      3 UNK        -0.4354 
     30 C          25.3160   23.6327    0.6202 C.2       2 UNK         0.4964 
     31 O          24.8740   24.1122    1.6635 O.2       2 UNK        -0.5047 
     32 CA         25.9783   22.2419    0.6638 C.3       2 UNK         0.0288 
     33 CB         24.9259   21.1386    0.4695 C.3       2 UNK        -0.2113 
     34 N          27.0473   22.0694   -0.3232 N.am      2 UNK        -0.4145 
     35 C          28.2015   22.7538   -0.3255 C.2       1 UNK         0.5006 
     36 O          28.5050   23.5695    0.5418 O.2       1 UNK        -0.5103 
     37 C          28.1636   27.2370    4.0519 C.2       5 UNK         0.5055 
     38 O          27.0072   27.5766    4.3123 O.2       5 UNK        -0.5220 
     39 N          29.2574   27.9207    4.4233 N.am      6 UNK        -0.4450 
     40 CA         29.3109   29.1876    5.1626 C.3       6 UNK         0.0367 
     41 CB         28.8296   28.9889    6.6152 C.3       6 UNK        -0.1929 
     42 C          28.5995   30.3615    4.4533 C.2       6 UNK         0.5070 
     43 O          28.1424   31.2895    5.1225 O.2       6 UNK        -0.5237 
     44 N          28.5289   30.3234    3.1136 N.am      7 UNK        -0.4739 
     45 CA         27.9216   31.3733    2.2849 C.3       7 UNK         0.0276 
     46 CB         27.5666   30.7895    0.9084 C.3       7 UNK        -0.1927 
     47 C          28.8143   32.6177    2.1236 C.2       7 UNK         0.5013 
     48 O          28.3234   33.6582    1.6833 O.2       7 UNK        -0.5193 
     49 N          30.0974   32.4902    2.4744 N.am      8 UNK        -0.4253 
     50 CA         31.0963   33.5512    2.4983 C.3       8 UNK         0.0242 
     51 CB         32.0340   33.3863    1.2901 C.3       8 UNK        -0.2000 
     52 C          31.8758   33.4497    3.8139 C.2       8 UNK         0.4948 
     53 O          31.8672   32.3913    4.4533 O.2       8 UNK        -0.5275 
     54 N          32.5498   34.5462    4.1856 N.am      9 UNK        -0.4246 
     55 CA         33.4106   34.6402    5.3668 C.3       9 UNK         0.0261 
     56 CB         33.9310   36.0802    5.5116 C.3       9 UNK        -0.1959 
     57 C          34.5734   33.6372    5.2853 C.2       9 UNK         0.5033 
     58 O          35.3514   33.6922    4.3307 O.2       9 UNK        -0.5390 
     59 N          34.6334   32.7311    6.2707 N.am      10 UNK        -0.4215 
     60 CA         35.5346   31.5744    6.3575 C.3       10 UNK         0.0240 
     61 CB         37.0125   32.0148    6.4507 C.3       10 UNK        -0.1982 
     62 C          35.2889   30.5105    5.2639 C.2       10 UNK         0.4970 
     63 O          36.2069   29.7509    4.9487 O.2       10 UNK        -0.4916 
     64 N          34.0540   30.4414    4.7417 N.am      11 UNK        -0.4279 
     65 CA         33.5978   29.4881    3.7184 C.3       11 UNK         0.1003 
     66 C          34.2201   29.7426    2.3107 C.2       11 UNK         0.5709 
     67 N          34.0637   28.8151    1.3764 N.am      11 UNK        -0.7358 
     68 O          34.8037   30.7891    2.0358 O.2       11 UNK        -0.4999 
     69 C69        33.7088   28.0141    4.2149 C.3       12 UNK        -0.0954 
     70 S70        32.4363   26.9069    3.5285 S.3       12 UNK        -0.2268 
     71 C71        33.1904   25.3018    3.9348 C.3       12 UNK         0.0203 
     72 H72        27.1801   23.4713   -5.4514 H         1 UNK         0.0888 
     73 H73        27.2612   21.7640   -5.0101 H         1 UNK         0.0888 
     74 H74        25.8395   22.7200   -4.5825 H         1 UNK         0.0888 
     75 H75        28.6188   21.4156   -3.2518 H         1 UNK         0.3017 
     76 H76        29.6471   23.4934   -1.6931 H         1 UNK         0.0873 
     77 H77        29.8590   20.7080   -0.5375 H         1 UNK         0.0745 
     78 H78        30.4421   20.8993   -2.1572 H         1 UNK         0.0745 
     79 H79        31.5469   20.4446    0.9772 H         1 UNK         0.0705 
     80 H80        33.1356   21.1466    0.9900 H         1 UNK         0.0705 
     81 H81        33.4385   23.5562    1.8389 H         1 UNK         0.1334 
     82 H82        30.9470   24.4741    5.1987 H         1 UNK         0.1417 
     83 H83        29.8874   21.2625    2.5554 H         1 UNK         0.1562 
     84 H84        29.3064   22.0229    5.6808 H         1 UNK         0.0748 
     85 H85        28.3223   21.9302    4.2399 H         1 UNK         0.0748 
     86 H86        26.5193   25.0204    3.7611 H         1 UNK         0.0940 
     87 H87        27.6263   23.9528    2.9607 H         1 UNK         0.0940 
     88 H88        29.4734   25.7069    3.3040 H         1 UNK         0.0703 
     89 H89        27.7279   25.4557    1.2926 H         1 UNK         0.3081 
     90 H90        28.0910   28.1950   -0.7795 H         1 UNK         0.0719 
     91 H91        29.8232   25.6784   -0.9916 H         1 UNK         0.0809 
     92 H92        29.2506   26.6146   -2.3747 H         1 UNK         0.0809 
     93 H93        30.3530   27.3364   -1.2110 H         1 UNK         0.0809 
     94 H94        27.2778   25.5090   -1.3258 H         1 UNK         0.2990 
     95 H95        23.9444   25.8021   -0.0693 H         1 UNK         0.0690 
     96 H96        23.4641   25.0966   -2.4090 H         1 UNK         0.0788 
     97 H97        25.0472   25.6738   -2.9273 H         1 UNK         0.0788 
     98 H98        23.8488   26.8081   -2.3261 H         1 UNK         0.0788 
     99 H99        25.7056   23.8280   -1.3695 H         1 UNK         0.2993 
    100 H100       26.4195   22.1227    1.6559 H         1 UNK         0.0949 
    101 H101       24.4624   21.1904   -0.5166 H         1 UNK         0.0767 
    102 H102       25.3642   20.1470    0.5844 H         1 UNK         0.0767 
    103 H103       24.1288   21.2259    1.2094 H         1 UNK         0.0767 
    104 H104       26.8723   21.4231   -1.0790 H         1 UNK         0.3013 
    105 H105       30.1525   27.5758    4.0983 H         1 UNK         0.3121 
    106 H106       30.3653   29.4656    5.2039 H         1 UNK         0.0774 
    107 H107       29.0035   29.8849    7.2123 H         1 UNK         0.0815 
    108 H108       27.7623   28.7704    6.6605 H         1 UNK         0.0815 
    109 H109       29.3610   28.1705    7.1009 H         1 UNK         0.0815 
    110 H110       28.9121   29.5190    2.6206 H         1 UNK         0.2987 
    111 H111       26.9956   31.6989    2.7641 H         1 UNK         0.0949 
    112 H112       28.4571   30.4747    0.3633 H         1 UNK         0.0806 
    113 H113       26.9055   29.9281    1.0028 H         1 UNK         0.0806 
    114 H114       27.0506   31.5264    0.2915 H         1 UNK         0.0806 
    115 H115       30.3885   31.6253    2.9096 H         1 UNK         0.3010 
    116 H116       30.6122   34.5296    2.4590 H         1 UNK         0.0829 
    117 H117       31.4834   33.4491    0.3513 H         1 UNK         0.0813 
    118 H118       32.7960   34.1665    1.2715 H         1 UNK         0.0813 
    119 H119       32.5517   32.4263    1.3103 H         1 UNK         0.0813 
    120 H120       32.5270   35.3564    3.5833 H         1 UNK         0.3038 
    121 H121       32.7976   34.4110    6.2411 H         1 UNK         0.0769 
    122 H122       33.1116   36.7908    5.6219 H         1 UNK         0.0811 
    123 H123       34.5263   36.3839    4.6493 H         1 UNK         0.0811 
    124 H124       34.5645   36.1780    6.3943 H         1 UNK         0.0811 
    125 H125       33.9322   32.7823    6.9978 H         1 UNK         0.3204 
    126 H126       35.2886   31.0812    7.2991 H         1 UNK         0.0748 
    127 H127       37.1561   32.7625    7.2307 H         1 UNK         0.0771 
    128 H128       37.6582   31.1697    6.6926 H         1 UNK         0.0771 
    129 H129       37.3714   32.4357    5.5111 H         1 UNK         0.0771 
    130 H130       33.3760   31.1560    4.9843 H         1 UNK         0.2980 
    131 H131       32.5397   29.7239    3.6001 H         1 UNK         0.0545 
    132 H132       34.4438   28.9693    0.4562 H         1 UNK         0.3459 
    133 H133       33.5651   27.9633    1.5868 H         1 UNK         0.3459 
    134 H134       34.7015   27.6104    4.0069 H         1 UNK         0.0616 
    135 H135       33.5927   27.9732    5.2992 H         1 UNK         0.0616 
    136 H136       33.3980   25.2592    5.0051 H         1 UNK         0.0634 
    137 H137       34.1523   25.2161    3.4267 H         1 UNK         0.0634 
@<TRIPOS>BOND
     1    1    2 1    
     2    1   72 1    
     3    1   73 1    
     4    1   74 1    
     5    2    3 2    
     6    2    4 am   BACKBONE|DICT|INTERRES
     7    4    5 1    
     8    4   75 1    
     9    5    6 1    
    10    5   35 1    
    11    5   76 1    
    12    6    7 1    
    13    6   77 1    
    14    6   78 1    
    15    7    8 1    
    16    8    9 1    
    17    8   79 1    
    18    8   80 1    
    19    9   10 ar   
    20    9   14 ar   
    21   10   11 ar   
    22   10   81 1    
    23   11   12 ar   
    24   11   71 1    
    25   12   13 ar   
    26   12   82 1    
    27   13   14 ar   
    28   13   15 1    
    29   14   83 1    
    30   15   16 1    
    31   15   84 1    
    32   15   85 1    
    33   16   17 1    
    34   17   18 1    
    35   17   86 1    
    36   17   87 1    
    37   18   19 1    
    38   18   37 1    
    39   18   88 1    
    40   19   20 am   BACKBONE|DICT|INTERRES
    41   19   89 1    
    42   20   21 2    
    43   20   22 1    
    44   22   23 1    
    45   22   24 1    
    46   22   90 1    
    47   23   91 1    
    48   23   92 1    
    49   23   93 1    
    50   24   25 am   BACKBONE|DICT|INTERRES
    51   24   94 1    
    52   25   26 2    
    53   25   27 1    
    54   27   28 1    
    55   27   29 1    
    56   27   95 1    
    57   28   96 1    
    58   28   97 1    
    59   28   98 1    
    60   29   30 am   BACKBONE|DICT|INTERRES
    61   29   99 1    
    62   30   31 2    
    63   30   32 1    
    64   32   33 1    
    65   32   34 1    
    66   32  100 1    
    67   33  101 1    
    68   33  102 1    
    69   33  103 1    
    70   34   35 am   BACKBONE|DICT|INTERRES
    71   34  104 1    
    72   35   36 2    
    73   37   38 2    
    74   37   39 am   BACKBONE|DICT|INTERRES
    75   39   40 1    
    76   39  105 1    
    77   40   41 1    
    78   40   42 1    
    79   40  106 1    
    80   41  107 1    
    81   41  108 1    
    82   41  109 1    
    83   42   43 2    
    84   42   44 am   BACKBONE|DICT|INTERRES
    85   44   45 1    
    86   44  110 1    
    87   45   46 1    
    88   45   47 1    
    89   45  111 1    
    90   46  112 1    
    91   46  113 1    
    92   46  114 1    
    93   47   48 2    
    94   47   49 am   BACKBONE|DICT|INTERRES
    95   49   50 1    
    96   49  115 1    
    97   50   51 1    
    98   50   52 1    
    99   50  116 1    
   100   51  117 1    
   101   51  118 1    
   102   51  119 1    
   103   52   53 2    
   104   52   54 am   BACKBONE|DICT|INTERRES
   105   54   55 1    
   106   54  120 1    
   107   55   56 1    
   108   55   57 1    
   109   55  121 1    
   110   56  122 1    
   111   56  123 1    
   112   56  124 1    
   113   57   58 2    
   114   57   59 am   BACKBONE|DICT|INTERRES
   115   59   60 1    
   116   59  125 1    
   117   60   61 1    
   118   60   62 1    
   119   60  126 1    
   120   61  127 1    
   121   61  128 1    
   122   61  129 1    
   123   62   63 2    
   124   62   64 am   BACKBONE|DICT|INTERRES
   125   64   65 1    
   126   64  130 1    
   127   65   66 1    
   128   65   69 1    
   129   65  131 1    
   130   66   67 am   BACKBONE|DICT|INTERRES
   131   66   68 2    
   132   67  132 1    
   133   67  133 1    
   134   69   70 1    
   135   69  134 1    
   136   69  135 1    
   137   70   71 1    
   138   71  136 1    
   139   71  137 1    
@<TRIPOS>SUBSTRUCTURE
     1 UNK         1 GROUP             0       ****    0 ROOT    
