@<TRIPOS>MOLECULE
3R136
137   139    1
SMALL
USER_CHARGES


@<TRIPOS>ATOM
      1 CA         29.3835   25.5059    3.4912 C.3       0 UNK        -0.1979 
      2 C          28.8011   24.4540    2.5594 C.2       0 UNK         0.4864 
      3 O          28.6625   24.7068    1.3623 O.2       0 UNK        -0.5359 
      4 N          28.4354   23.2868    3.1116 N.am      1 UNK        -0.4318 
      5 CA         27.9910   22.0705    2.4064 C.3       1 UNK         0.0824 
      6 C6         29.1491   21.3735    1.6398 C.3       12 UNK        -0.0944 
      7 S7         30.5070   20.8751    2.7524 S.3       12 UNK        -0.2672 
      8 C8         31.9764   21.2885    1.7616 C.3       12 UNK         0.0333 
      9 C9         32.3093   22.7738    1.8013 C.ar      12 UNK        -0.0807 
     10 C10        32.8944   23.3269    2.9434 C.ar      12 UNK        -0.0894 
     11 C11        33.2635   24.6738    2.9690 C.ar      12 UNK        -0.0804 
     12 C12        33.0526   25.4671    1.8379 C.ar      12 UNK        -0.0824 
     13 C13        32.4384   24.9380    0.6939 C.ar      12 UNK        -0.0762 
     14 C14        32.0742   23.5865    0.6877 C.ar      12 UNK        -0.0782 
     15 C15        32.1678   25.7708   -0.5640 C.3       12 UNK         0.0230 
     16 S16        32.1700   27.5872   -0.3470 S.3       12 UNK        -0.2608 
     17 C17        30.8761   27.8151    0.9170 C.3       12 UNK        -0.0989 
     18 CA         29.8914   28.9605    0.5870 C.3       5 UNK         0.0716 
     19 N          29.1887   28.7298   -0.6768 N.am      5 UNK        -0.4135 
     20 C          28.3188   29.5659   -1.2605 C.2       4 UNK         0.5031 
     21 O          28.0644   30.6947   -0.8391 O.2       4 UNK        -0.5229 
     22 CA         27.5598   29.0287   -2.4919 C.3       4 UNK         0.0329 
     23 CB         28.2444   29.4952   -3.7864 C.3       4 UNK        -0.2001 
     24 N          27.4010   27.5654   -2.5262 N.am      4 UNK        -0.4303 
     25 C          26.8511   26.8234   -1.5530 C.2       3 UNK         0.5044 
     26 O          26.4129   27.3069   -0.5067 O.2       3 UNK        -0.5152 
     27 CA         26.8361   25.2993   -1.7635 C.3       3 UNK         0.0319 
     28 CB         28.2421   24.7542   -2.0749 C.3       3 UNK        -0.2001 
     29 N          26.3516   24.6375   -0.5535 N.am      3 UNK        -0.4354 
     30 C          25.0753   24.3159   -0.3016 C.2       2 UNK         0.4964 
     31 O          24.1668   24.4565   -1.1228 O.2       2 UNK        -0.5047 
     32 CA         24.7444   23.7662    1.1056 C.3       2 UNK         0.0288 
     33 CB         23.6236   22.7042    1.0775 C.3       2 UNK        -0.2113 
     34 N          25.9128   23.2786    1.8542 N.am      2 UNK        -0.4145 
     35 C          26.7382   22.2730    1.5178 C.2       1 UNK         0.5006 
     36 O          26.5502   21.5348    0.5485 O.2       1 UNK        -0.5103 
     37 C          28.9409   29.1674    1.7858 C.2       5 UNK         0.5055 
     38 O          29.3108   29.8849    2.7139 O.2       5 UNK        -0.5220 
     39 N          27.7443   28.5561    1.7608 N.am      6 UNK        -0.4450 
     40 CA         26.7591   28.6004    2.8489 C.3       6 UNK         0.0367 
     41 CB         25.6828   27.5289    2.6081 C.3       6 UNK        -0.1929 
     42 C          26.1189   29.9838    3.0729 C.2       6 UNK         0.5070 
     43 O          25.4600   30.1784    4.0946 O.2       6 UNK        -0.5237 
     44 N          26.3338   30.9277    2.1449 N.am      7 UNK        -0.4739 
     45 CA         25.9703   32.3392    2.2937 C.3       7 UNK         0.0276 
     46 CB         26.0742   33.0272    0.9230 C.3       7 UNK        -0.1927 
     47 C          26.8280   33.0848    3.3373 C.2       7 UNK         0.5013 
     48 O          26.4059   34.1416    3.8092 O.2       7 UNK        -0.5193 
     49 N          28.0024   32.5379    3.6774 N.am      8 UNK        -0.4253 
     50 CA         28.9273   33.0609    4.6776 C.3       8 UNK         0.0242 
     51 CB         29.7992   34.1790    4.0624 C.3       8 UNK        -0.2000 
     52 C          29.7105   31.8676    5.2443 C.2       8 UNK         0.4948 
     53 O          29.1011   30.9913    5.8604 O.2       8 UNK        -0.5275 
     54 N          31.0252   31.8340    5.0094 N.am      9 UNK        -0.4246 
     55 CA         31.9245   30.7190    5.2806 C.3       9 UNK         0.0261 
     56 CB         32.3287   30.6999    6.7667 C.3       9 UNK        -0.1959 
     57 C          33.1490   30.8911    4.3748 C.2       9 UNK         0.5033 
     58 O          33.4580   32.0224    3.9870 O.2       9 UNK        -0.5390 
     59 N          33.8291   29.7819    4.0662 N.am      10 UNK        -0.4215 
     60 CA         35.0335   29.7562    3.2284 C.3       10 UNK         0.0240 
     61 CB         34.6374   29.6449    1.7429 C.3       10 UNK        -0.1982 
     62 C          36.0183   28.6557    3.6637 C.2       10 UNK         0.4970 
     63 O          36.8135   28.1982    2.8416 O.2       10 UNK        -0.4916 
     64 N          35.9541   28.2533    4.9386 N.am      11 UNK        -0.4279 
     65 CA         36.8349   27.2615    5.5708 C.3       11 UNK         0.1003 
     66 C          37.3793   27.8218    6.9097 C.2       11 UNK         0.5709 
     67 N          38.5429   27.3616    7.3480 N.am      11 UNK        -0.7358 
     68 O          36.7472   28.6481    7.5674 O.2       11 UNK        -0.4999 
     69 C69        36.1186   25.9018    5.7948 C.3       12 UNK        -0.0954 
     70 S70        35.6849   25.0555    4.2384 S.3       12 UNK        -0.2268 
     71 C71        33.8817   25.2740    4.2215 C.3       12 UNK         0.0203 
     72 H72        29.3362   25.1977    4.5354 H         1 UNK         0.0888 
     73 H73        30.4276   25.6865    3.2403 H         1 UNK         0.0888 
     74 H74        28.8393   26.4427    3.3904 H         1 UNK         0.0888 
     75 H75        28.5624   23.1665    4.1070 H         1 UNK         0.3017 
     76 H76        27.6621   21.3827    3.1871 H         1 UNK         0.0873 
     77 H77        29.5280   22.0280    0.8533 H         1 UNK         0.0745 
     78 H78        28.8019   20.4663    1.1419 H         1 UNK         0.0745 
     79 H79        31.8337   20.9454    0.7356 H         1 UNK         0.0705 
     80 H80        32.8260   20.7256    2.1509 H         1 UNK         0.0705 
     81 H81        33.0717   22.7041    3.8099 H         1 UNK         0.1334 
     82 H82        33.3666   26.4995    1.8618 H         1 UNK         0.1417 
     83 H83        31.6157   23.1618   -0.1951 H         1 UNK         0.1562 
     84 H84        31.2063   25.4836   -0.9892 H         1 UNK         0.0748 
     85 H85        32.9207   25.5171   -1.3112 H         1 UNK         0.0748 
     86 H86        31.3794   28.0069    1.8670 H         1 UNK         0.0940 
     87 H87        30.3308   26.8781    1.0438 H         1 UNK         0.0940 
     88 H88        30.4639   29.8835    0.4721 H         1 UNK         0.0703 
     89 H89        29.3476   27.8338   -1.1112 H         1 UNK         0.3081 
     90 H90        26.5572   29.4602   -2.4603 H         1 UNK         0.0719 
     91 H91        28.3536   30.5808   -3.8008 H         1 UNK         0.0809 
     92 H92        29.2416   29.0664   -3.8935 H         1 UNK         0.0809 
     93 H93        27.6625   29.2200   -4.6663 H         1 UNK         0.0809 
     94 H94        27.7342   27.0984   -3.3575 H         1 UNK         0.2990 
     95 H95        26.1764   25.0766   -2.6045 H         1 UNK         0.0690 
     96 H96        28.2317   23.6670   -2.1571 H         1 UNK         0.0788 
     97 H97        28.9533   25.0169   -1.2922 H         1 UNK         0.0788 
     98 H98        28.6284   25.1403   -3.0184 H         1 UNK         0.0788 
     99 H99        27.0349   24.5486    0.1933 H         1 UNK         0.2993 
    100 H100       24.3669   24.6219    1.6676 H         1 UNK         0.0949 
    101 H101       22.7014   23.1180    0.6674 H         1 UNK         0.0767 
    102 H102       23.8936   21.8452    0.4626 H         1 UNK         0.0767 
    103 H103       23.3951   22.3417    2.0797 H         1 UNK         0.0767 
    104 H104       26.1654   23.8214    2.6679 H         1 UNK         0.3013 
    105 H105       27.4660   28.0333    0.9332 H         1 UNK         0.3121 
    106 H106       27.2826   28.3480    3.7735 H         1 UNK         0.0774 
    107 H107       26.1269   26.5454    2.4552 H         1 UNK         0.0815 
    108 H108       25.0094   27.4534    3.4628 H         1 UNK         0.0815 
    109 H109       25.0725   27.7617    1.7349 H         1 UNK         0.0815 
    110 H110       26.8749   30.6820    1.3256 H         1 UNK         0.2987 
    111 H111       24.9318   32.3917    2.6280 H         1 UNK         0.0949 
    112 H112       25.4278   32.5482    0.1873 H         1 UNK         0.0806 
    113 H113       25.7725   34.0737    0.9867 H         1 UNK         0.0806 
    114 H114       27.0944   33.0045    0.5373 H         1 UNK         0.0806 
    115 H115       28.2583   31.6370    3.2835 H         1 UNK         0.3010 
    116 H116       28.3570   33.4817    5.5086 H         1 UNK         0.0829 
    117 H117       30.5168   34.5664    4.7870 H         1 UNK         0.0813 
    118 H118       30.3533   33.8326    3.1889 H         1 UNK         0.0813 
    119 H119       29.1858   35.0227    3.7454 H         1 UNK         0.0813 
    120 H120       31.4599   32.5770    4.4745 H         1 UNK         0.3038 
    121 H121       31.4198   29.7862    5.0182 H         1 UNK         0.0769 
    122 H122       33.0120   29.8770    6.9792 H         1 UNK         0.0811 
    123 H123       31.4607   30.5720    7.4136 H         1 UNK         0.0811 
    124 H124       32.8287   31.6245    7.0582 H         1 UNK         0.0811 
    125 H125       33.5032   28.8906    4.4133 H         1 UNK         0.3204 
    126 H126       35.5759   30.6949    3.3615 H         1 UNK         0.0748 
    127 H127       35.5108   29.7178    1.0937 H         1 UNK         0.0771 
    128 H128       34.1539   28.6926    1.5327 H         1 UNK         0.0771 
    129 H129       33.9527   30.4407    1.4492 H         1 UNK         0.0771 
    130 H130       35.3628   28.7551    5.5857 H         1 UNK         0.2980 
    131 H131       37.7032   27.0910    4.9311 H         1 UNK         0.0545 
    132 H132       38.9075   27.7069    8.2221 H         1 UNK         0.3459 
    133 H133       39.0650   26.6768    6.8233 H         1 UNK         0.3459 
    134 H134       36.7651   25.2206    6.3513 H         1 UNK         0.0616 
    135 H135       35.2250   26.0338    6.4077 H         1 UNK         0.0616 
    136 H136       33.4519   24.8067    5.1090 H         1 UNK         0.0634 
    137 H137       33.6455   26.3369    4.2852 H         1 UNK         0.0634 
@<TRIPOS>BOND
     1    1    2 1    
     2    1   72 1    
     3    1   73 1    
     4    1   74 1    
     5    2    3 2    
     6    2    4 am   BACKBONE|DICT|INTERRES
     7    4    5 1    
     8    4   75 1    
     9    5    6 1    
    10    5   35 1    
    11    5   76 1    
    12    6    7 1    
    13    6   77 1    
    14    6   78 1    
    15    7    8 1    
    16    8    9 1    
    17    8   79 1    
    18    8   80 1    
    19    9   10 ar   
    20    9   14 ar   
    21   10   11 ar   
    22   10   81 1    
    23   11   12 ar   
    24   11   71 1    
    25   12   13 ar   
    26   12   82 1    
    27   13   14 ar   
    28   13   15 1    
    29   14   83 1    
    30   15   16 1    
    31   15   84 1    
    32   15   85 1    
    33   16   17 1    
    34   17   18 1    
    35   17   86 1    
    36   17   87 1    
    37   18   19 1    
    38   18   37 1    
    39   18   88 1    
    40   19   20 am   BACKBONE|DICT|INTERRES
    41   19   89 1    
    42   20   21 2    
    43   20   22 1    
    44   22   23 1    
    45   22   24 1    
    46   22   90 1    
    47   23   91 1    
    48   23   92 1    
    49   23   93 1    
    50   24   25 am   BACKBONE|DICT|INTERRES
    51   24   94 1    
    52   25   26 2    
    53   25   27 1    
    54   27   28 1    
    55   27   29 1    
    56   27   95 1    
    57   28   96 1    
    58   28   97 1    
    59   28   98 1    
    60   29   30 am   BACKBONE|DICT|INTERRES
    61   29   99 1    
    62   30   31 2    
    63   30   32 1    
    64   32   33 1    
    65   32   34 1    
    66   32  100 1    
    67   33  101 1    
    68   33  102 1    
    69   33  103 1    
    70   34   35 am   BACKBONE|DICT|INTERRES
    71   34  104 1    
    72   35   36 2    
    73   37   38 2    
    74   37   39 am   BACKBONE|DICT|INTERRES
    75   39   40 1    
    76   39  105 1    
    77   40   41 1    
    78   40   42 1    
    79   40  106 1    
    80   41  107 1    
    81   41  108 1    
    82   41  109 1    
    83   42   43 2    
    84   42   44 am   BACKBONE|DICT|INTERRES
    85   44   45 1    
    86   44  110 1    
    87   45   46 1    
    88   45   47 1    
    89   45  111 1    
    90   46  112 1    
    91   46  113 1    
    92   46  114 1    
    93   47   48 2    
    94   47   49 am   BACKBONE|DICT|INTERRES
    95   49   50 1    
    96   49  115 1    
    97   50   51 1    
    98   50   52 1    
    99   50  116 1    
   100   51  117 1    
   101   51  118 1    
   102   51  119 1    
   103   52   53 2    
   104   52   54 am   BACKBONE|DICT|INTERRES
   105   54   55 1    
   106   54  120 1    
   107   55   56 1    
   108   55   57 1    
   109   55  121 1    
   110   56  122 1    
   111   56  123 1    
   112   56  124 1    
   113   57   58 2    
   114   57   59 am   BACKBONE|DICT|INTERRES
   115   59   60 1    
   116   59  125 1    
   117   60   61 1    
   118   60   62 1    
   119   60  126 1    
   120   61  127 1    
   121   61  128 1    
   122   61  129 1    
   123   62   63 2    
   124   62   64 am   BACKBONE|DICT|INTERRES
   125   64   65 1    
   126   64  130 1    
   127   65   66 1    
   128   65   69 1    
   129   65  131 1    
   130   66   67 am   BACKBONE|DICT|INTERRES
   131   66   68 2    
   132   67  132 1    
   133   67  133 1    
   134   69   70 1    
   135   69  134 1    
   136   69  135 1    
   137   70   71 1    
   138   71  136 1    
   139   71  137 1    
@<TRIPOS>SUBSTRUCTURE
     1 UNK         1 GROUP             0       ****    0 ROOT    
