@<TRIPOS>MOLECULE
3R136
137   139    1
SMALL
USER_CHARGES


@<TRIPOS>ATOM
      1 CA         33.0626   27.3786   -2.4455 C.3       0 UNK        -0.1979 
      2 C          31.6815   27.7777   -1.9477 C.2       0 UNK         0.4864 
      3 O          31.1086   28.7481   -2.4416 O.2       0 UNK        -0.5359 
      4 N          31.1362   27.0292   -0.9792 N.am      1 UNK        -0.4318 
      5 CA         29.8399   27.2842   -0.3361 C.3       1 UNK         0.0824 
      6 C6         29.8437   26.7843    1.1303 C.3       12 UNK        -0.0944 
      7 S7         29.8939   24.9640    1.3055 S.3       12 UNK        -0.2672 
      8 C8         30.9316   24.7616    2.7882 C.3       12 UNK         0.0333 
      9 C9         30.2800   25.3548    4.0301 C.ar      12 UNK        -0.0807 
     10 C10        30.8489   26.4633    4.6632 C.ar      12 UNK        -0.0894 
     11 C11        30.2650   27.0019    5.8136 C.ar      12 UNK        -0.0804 
     12 C12        29.0844   26.4469    6.3124 C.ar      12 UNK        -0.0824 
     13 C13        28.4960   25.3481    5.6797 C.ar      12 UNK        -0.0762 
     14 C14        29.1118   24.7913    4.5530 C.ar      12 UNK        -0.0782 
     15 C15        27.1968   24.7671    6.2216 C.3       12 UNK         0.0230 
     16 S16        25.8675   24.7269    4.9752 S.3       12 UNK        -0.2608 
     17 C17        25.7149   26.4825    4.4783 C.3       12 UNK        -0.0989 
     18 CA         26.3484   26.7800    3.0860 C.3       5 UNK         0.0716 
     19 N          25.9392   25.8349    2.0361 N.am      5 UNK        -0.4135 
     20 C          24.6921   25.6523    1.5732 C.2       4 UNK         0.5031 
     21 O          23.7047   26.2445    2.0117 O.2       4 UNK        -0.5229 
     22 CA         24.5044   24.6624    0.4122 C.3       4 UNK         0.0329 
     23 CB         23.7148   25.3075   -0.7420 C.3       4 UNK        -0.2001 
     24 N          25.7810   24.1825   -0.1183 N.am      4 UNK        -0.4303 
     25 C          26.1228   22.8978   -0.2894 C.2       3 UNK         0.5044 
     26 O          25.4289   21.9512    0.0857 O.2       3 UNK        -0.5152 
     27 CA         27.4655   22.6215   -1.0041 C.3       3 UNK         0.0319 
     28 CB         27.4351   21.3281   -1.8457 C.3       3 UNK        -0.2001 
     29 N          27.9455   23.7582   -1.8030 N.am      3 UNK        -0.4354 
     30 C          27.3286   24.3528   -2.8392 C.2       2 UNK         0.4964 
     31 O          26.3145   23.9084   -3.3782 O.2       2 UNK        -0.5047 
     32 CA         27.9179   25.6929   -3.3298 C.3       2 UNK         0.0288 
     33 CB         26.8129   26.6981   -3.7219 C.3       2 UNK        -0.2113 
     34 N          28.8644   26.3144   -2.3901 N.am      2 UNK        -0.4145 
     35 C          28.6295   26.7484   -1.1401 C.2       1 UNK         0.5006 
     36 O          27.5244   26.6802   -0.5917 O.2       1 UNK        -0.5103 
     37 C          26.1474   28.2477    2.6286 C.2       5 UNK         0.5055 
     38 O          25.8399   29.1139    3.4494 O.2       5 UNK        -0.5220 
     39 N          26.2873   28.4953    1.3157 N.am      6 UNK        -0.4450 
     40 CA         25.9333   29.7534    0.6518 C.3       6 UNK         0.0367 
     41 CB         25.5681   29.4479   -0.8114 C.3       6 UNK        -0.1929 
     42 C          27.0274   30.8336    0.7140 C.2       6 UNK         0.5070 
     43 O          26.7572   31.9766    0.3432 O.2       6 UNK        -0.5237 
     44 N          28.2342   30.4732    1.1591 N.am      7 UNK        -0.4739 
     45 CA         29.3833   31.3610    1.3145 C.3       7 UNK         0.0276 
     46 CB         30.1533   31.4675   -0.0158 C.3       7 UNK        -0.1927 
     47 C          30.2739   30.8097    2.4319 C.2       7 UNK         0.5013 
     48 O          30.0825   29.6646    2.8494 O.2       7 UNK        -0.5193 
     49 N          31.2280   31.6327    2.8888 N.am      8 UNK        -0.4253 
     50 CA         32.1831   31.2876    3.9439 C.3       8 UNK         0.0242 
     51 CB         32.9849   32.5315    4.3610 C.3       8 UNK        -0.2000 
     52 C          33.1173   30.1350    3.5451 C.2       8 UNK         0.4948 
     53 O          33.1997   29.1471    4.2721 O.2       8 UNK        -0.5275 
     54 N          33.7869   30.2690    2.3901 N.am      9 UNK        -0.4246 
     55 CA         34.7302   29.3001    1.8189 C.3       9 UNK         0.0261 
     56 CB         33.9664   28.0687    1.2778 C.3       9 UNK        -0.1959 
     57 C          35.8622   28.9487    2.8083 C.2       9 UNK         0.5033 
     58 O          36.8039   29.7313    2.9461 O.2       9 UNK        -0.5390 
     59 N          35.7416   27.7974    3.4822 N.am      10 UNK        -0.4215 
     60 CA         36.6587   27.3275    4.5204 C.3       10 UNK         0.0240 
     61 CB         36.5609   25.7959    4.6097 C.3       10 UNK        -0.1982 
     62 C          36.4091   27.9580    5.9043 C.2       10 UNK         0.4970 
     63 O          37.3196   27.9228    6.7337 O.2       10 UNK        -0.4916 
     64 N          35.2036   28.4886    6.1555 N.am      11 UNK        -0.4279 
     65 CA         34.8239   29.1171    7.4309 C.3       11 UNK         0.1003 
     66 C          35.5387   30.4771    7.6543 C.2       11 UNK         0.5709 
     67 N          35.8347   30.8235    8.8997 N.am      11 UNK        -0.7358 
     68 O          35.7893   31.2367    6.7203 O.2       11 UNK        -0.4999 
     69 C69        33.2863   29.2773    7.5790 C.3       12 UNK        -0.0954 
     70 S70        32.3921   27.6922    7.4353 S.3       12 UNK        -0.2268 
     71 C71        30.9089   28.1923    6.5034 C.3       12 UNK         0.0203 
     72 H72        33.0295   27.1604   -3.5126 H         1 UNK         0.0888 
     73 H73        33.7671   28.1946   -2.2862 H         1 UNK         0.0888 
     74 H74        33.4438   26.4972   -1.9299 H         1 UNK         0.0888 
     75 H75        31.6383   26.2263   -0.6257 H         1 UNK         0.3017 
     76 H76        29.6961   28.3647   -0.2963 H         1 UNK         0.0873 
     77 H77        30.6962   27.2187    1.6555 H         1 UNK         0.0745 
     78 H78        28.9691   27.1603    1.6571 H         1 UNK         0.0745 
     79 H79        31.1083   23.6978    2.9519 H         1 UNK         0.0705 
     80 H80        31.9095   25.2101    2.6059 H         1 UNK         0.0705 
     81 H81        31.7529   26.9086    4.2704 H         1 UNK         0.1334 
     82 H82        28.6239   26.8730    7.1933 H         1 UNK         0.1417 
     83 H83        28.6647   23.9361    4.0645 H         1 UNK         0.1562 
     84 H84        26.8464   25.3307    7.0877 H         1 UNK         0.0748 
     85 H85        27.3830   23.7509    6.5714 H         1 UNK         0.0748 
     86 H86        26.1688   27.1139    5.2444 H         1 UNK         0.0940 
     87 H87        24.6536   26.7365    4.4759 H         1 UNK         0.0940 
     88 H88        27.4240   26.6537    3.2000 H         1 UNK         0.0703 
     89 H89        26.6831   25.2935    1.6213 H         1 UNK         0.3081 
     90 H90        23.9193   23.8305    0.8091 H         1 UNK         0.0719 
     91 H91        22.7307   25.6419   -0.4113 H         1 UNK         0.0809 
     92 H92        24.2368   26.1743   -1.1492 H         1 UNK         0.0809 
     93 H93        23.5579   24.6005   -1.5569 H         1 UNK         0.0809 
     94 H94        26.4134   24.8986   -0.4609 H         1 UNK         0.2990 
     95 H95        28.2008   22.4804   -0.2105 H         1 UNK         0.0690 
     96 H96        28.3916   21.1521   -2.3375 H         1 UNK         0.0788 
     97 H97        26.6630   21.3625   -2.6148 H         1 UNK         0.0788 
     98 H98        27.2299   20.4586   -1.2202 H         1 UNK         0.0788 
     99 H99        28.7774   24.2071   -1.4465 H         1 UNK         0.2993 
    100 H100       28.4885   25.4578   -4.2297 H         1 UNK         0.0949 
    101 H101       26.1424   26.9097   -2.8883 H         1 UNK         0.0767 
    102 H102       27.2376   27.6437   -4.0587 H         1 UNK         0.0767 
    103 H103       26.2014   26.3114   -4.5380 H         1 UNK         0.0767 
    104 H104       29.8096   26.4152   -2.7330 H         1 UNK         0.3013 
    105 H105       26.5797   27.7382    0.7031 H         1 UNK         0.3121 
    106 H106       25.0474   30.1650    1.1403 H         1 UNK         0.0774 
    107 H107       26.4244   29.0717   -1.3720 H         1 UNK         0.0815 
    108 H108       24.7712   28.7071   -0.8768 H         1 UNK         0.0815 
    109 H109       25.2164   30.3455   -1.3219 H         1 UNK         0.0815 
    110 H110       28.3671   29.5486    1.5487 H         1 UNK         0.2987 
    111 H111       29.0339   32.3507    1.6177 H         1 UNK         0.0949 
    112 H112       29.5020   31.7840   -0.8306 H         1 UNK         0.0806 
    113 H113       30.9579   32.2002    0.0529 H         1 UNK         0.0806 
    114 H114       30.6063   30.5180   -0.3006 H         1 UNK         0.0806 
    115 H115       31.3081   32.5561    2.4879 H         1 UNK         0.3010 
    116 H116       31.6069   30.9620    4.8110 H         1 UNK         0.0829 
    117 H117       33.5482   32.9554    3.5290 H         1 UNK         0.0813 
    118 H118       33.7009   32.2858    5.1468 H         1 UNK         0.0813 
    119 H119       32.3314   33.3102    4.7548 H         1 UNK         0.0813 
    120 H120       33.6717   31.1283    1.8720 H         1 UNK         0.3038 
    121 H121       35.2066   29.7903    0.9680 H         1 UNK         0.0769 
    122 H122       34.6486   27.3425    0.8339 H         1 UNK         0.0811 
    123 H123       33.2669   28.3706    0.4999 H         1 UNK         0.0811 
    124 H124       33.3871   27.5588    2.0487 H         1 UNK         0.0811 
    125 H125       34.9020   27.2557    3.3375 H         1 UNK         0.3204 
    126 H126       37.6780   27.5844    4.2258 H         1 UNK         0.0748 
    127 H127       35.5618   25.4711    4.9013 H         1 UNK         0.0771 
    128 H128       36.8026   25.3266    3.6561 H         1 UNK         0.0771 
    129 H129       37.2597   25.4024    5.3492 H         1 UNK         0.0771 
    130 H130       34.5065   28.5462    5.4164 H         1 UNK         0.2980 
    131 H131       35.1555   28.4433    8.2237 H         1 UNK         0.0545 
    132 H132       36.2851   31.7095    9.0669 H         1 UNK         0.3459 
    133 H133       35.6232   30.2153    9.6752 H         1 UNK         0.3459 
    134 H134       32.9098   29.9829    6.8373 H         1 UNK         0.0616 
    135 H135       33.0399   29.7031    8.5531 H         1 UNK         0.0616 
    136 H136       31.1583   28.9324    5.7474 H         1 UNK         0.0634 
    137 H137       30.2081   28.6775    7.1841 H         1 UNK         0.0634 
@<TRIPOS>BOND
     1    1    2 1    
     2    1   72 1    
     3    1   73 1    
     4    1   74 1    
     5    2    3 2    
     6    2    4 am   BACKBONE|DICT|INTERRES
     7    4    5 1    
     8    4   75 1    
     9    5    6 1    
    10    5   35 1    
    11    5   76 1    
    12    6    7 1    
    13    6   77 1    
    14    6   78 1    
    15    7    8 1    
    16    8    9 1    
    17    8   79 1    
    18    8   80 1    
    19    9   10 ar   
    20    9   14 ar   
    21   10   11 ar   
    22   10   81 1    
    23   11   12 ar   
    24   11   71 1    
    25   12   13 ar   
    26   12   82 1    
    27   13   14 ar   
    28   13   15 1    
    29   14   83 1    
    30   15   16 1    
    31   15   84 1    
    32   15   85 1    
    33   16   17 1    
    34   17   18 1    
    35   17   86 1    
    36   17   87 1    
    37   18   19 1    
    38   18   37 1    
    39   18   88 1    
    40   19   20 am   BACKBONE|DICT|INTERRES
    41   19   89 1    
    42   20   21 2    
    43   20   22 1    
    44   22   23 1    
    45   22   24 1    
    46   22   90 1    
    47   23   91 1    
    48   23   92 1    
    49   23   93 1    
    50   24   25 am   BACKBONE|DICT|INTERRES
    51   24   94 1    
    52   25   26 2    
    53   25   27 1    
    54   27   28 1    
    55   27   29 1    
    56   27   95 1    
    57   28   96 1    
    58   28   97 1    
    59   28   98 1    
    60   29   30 am   BACKBONE|DICT|INTERRES
    61   29   99 1    
    62   30   31 2    
    63   30   32 1    
    64   32   33 1    
    65   32   34 1    
    66   32  100 1    
    67   33  101 1    
    68   33  102 1    
    69   33  103 1    
    70   34   35 am   BACKBONE|DICT|INTERRES
    71   34  104 1    
    72   35   36 2    
    73   37   38 2    
    74   37   39 am   BACKBONE|DICT|INTERRES
    75   39   40 1    
    76   39  105 1    
    77   40   41 1    
    78   40   42 1    
    79   40  106 1    
    80   41  107 1    
    81   41  108 1    
    82   41  109 1    
    83   42   43 2    
    84   42   44 am   BACKBONE|DICT|INTERRES
    85   44   45 1    
    86   44  110 1    
    87   45   46 1    
    88   45   47 1    
    89   45  111 1    
    90   46  112 1    
    91   46  113 1    
    92   46  114 1    
    93   47   48 2    
    94   47   49 am   BACKBONE|DICT|INTERRES
    95   49   50 1    
    96   49  115 1    
    97   50   51 1    
    98   50   52 1    
    99   50  116 1    
   100   51  117 1    
   101   51  118 1    
   102   51  119 1    
   103   52   53 2    
   104   52   54 am   BACKBONE|DICT|INTERRES
   105   54   55 1    
   106   54  120 1    
   107   55   56 1    
   108   55   57 1    
   109   55  121 1    
   110   56  122 1    
   111   56  123 1    
   112   56  124 1    
   113   57   58 2    
   114   57   59 am   BACKBONE|DICT|INTERRES
   115   59   60 1    
   116   59  125 1    
   117   60   61 1    
   118   60   62 1    
   119   60  126 1    
   120   61  127 1    
   121   61  128 1    
   122   61  129 1    
   123   62   63 2    
   124   62   64 am   BACKBONE|DICT|INTERRES
   125   64   65 1    
   126   64  130 1    
   127   65   66 1    
   128   65   69 1    
   129   65  131 1    
   130   66   67 am   BACKBONE|DICT|INTERRES
   131   66   68 2    
   132   67  132 1    
   133   67  133 1    
   134   69   70 1    
   135   69  134 1    
   136   69  135 1    
   137   70   71 1    
   138   71  136 1    
   139   71  137 1    
@<TRIPOS>SUBSTRUCTURE
     1 UNK         1 GROUP             0       ****    0 ROOT    
