@<TRIPOS>MOLECULE
3R136
137   139    1
SMALL
USER_CHARGES


@<TRIPOS>ATOM
      1 CA         24.9434   19.1593    0.7668 C.3       0 UNK        -0.1979 
      2 C          26.1540   19.6369   -0.0219 C.2       0 UNK         0.4864 
      3 O          26.4430   19.0910   -1.0883 O.2       0 UNK        -0.5359 
      4 N          26.8672   20.6448    0.4971 N.am      1 UNK        -0.4318 
      5 CA         28.0159   21.2770   -0.1581 C.3       1 UNK         0.0824 
      6 C6         28.8722   22.0690    0.8626 C.3       12 UNK        -0.0944 
      7 S7         30.5745   22.3600    0.2675 S.3       12 UNK        -0.2672 
      8 C8         31.5434   22.1448    1.7917 C.3       12 UNK         0.0333 
      9 C9         31.4753   23.3785    2.6803 C.ar      12 UNK        -0.0807 
     10 C10        32.4366   24.3843    2.5530 C.ar      12 UNK        -0.0894 
     11 C11        32.4097   25.5023    3.3912 C.ar      12 UNK        -0.0804 
     12 C12        31.3996   25.6244    4.3510 C.ar      12 UNK        -0.0824 
     13 C13        30.4322   24.6235    4.4875 C.ar      12 UNK        -0.0762 
     14 C14        30.4759   23.5037    3.6499 C.ar      12 UNK        -0.0782 
     15 C15        29.3609   24.7188    5.5631 C.3       12 UNK         0.0230 
     16 S16        27.7769   25.3012    4.8804 S.3       12 UNK        -0.2608 
     17 C17        27.7100   27.0390    5.4390 C.3       12 UNK        -0.0989 
     18 CA         28.1447   28.0583    4.3568 C.3       5 UNK         0.0716 
     19 N          27.4202   27.8726    3.0966 N.am      5 UNK        -0.4135 
     20 C          27.6017   28.5849    1.9789 C.2       4 UNK         0.5031 
     21 O          28.3819   29.5362    1.8760 O.2       4 UNK        -0.5229 
     22 CA         26.7950   28.1443    0.7488 C.3       4 UNK         0.0329 
     23 CB         25.9213   29.2862    0.2053 C.3       4 UNK        -0.2001 
     24 N          27.7231   27.7004   -0.2883 N.am      4 UNK        -0.4303 
     25 C          28.3202   26.5036   -0.2828 C.2       3 UNK         0.5044 
     26 O          28.0457   25.6038    0.5132 O.2       3 UNK        -0.5152 
     27 CA         29.4367   26.2869   -1.3127 C.3       3 UNK         0.0319 
     28 CB         30.8122   26.3405   -0.6255 C.3       3 UNK        -0.2001 
     29 N          29.2670   24.9873   -1.9576 N.am      3 UNK        -0.4354 
     30 C          28.4350   24.7544   -2.9830 C.2       2 UNK         0.4964 
     31 O          27.8104   25.6376   -3.5718 O.2       2 UNK        -0.5047 
     32 CA         28.2621   23.2900   -3.4275 C.3       2 UNK         0.0288 
     33 CB         29.2517   22.9462   -4.5527 C.3       2 UNK        -0.2113 
     34 N          28.4342   22.3420   -2.3240 N.am      2 UNK        -0.4145 
     35 C          27.5576   22.1801   -1.3232 C.2       1 UNK         0.5006 
     36 O          26.4557   22.7355   -1.2806 O.2       1 UNK        -0.5103 
     37 C          27.9796   29.4965    4.8856 C.2       5 UNK         0.5055 
     38 O          26.8477   29.9322    5.1083 O.2       5 UNK        -0.5220 
     39 N          29.1021   30.2101    5.0328 N.am      6 UNK        -0.4450 
     40 CA         29.2619   31.6120    5.4455 C.3       6 UNK         0.0367 
     41 CB         28.6380   31.8841    6.8278 C.3       6 UNK        -0.1929 
     42 C          28.7896   32.6394    4.4006 C.2       6 UNK         0.5070 
     43 O          29.4289   33.6824    4.2649 O.2       6 UNK        -0.5237 
     44 N          27.7019   32.3405    3.6799 N.am      7 UNK        -0.4739 
     45 CA         27.1256   33.1849    2.6325 C.3       7 UNK         0.0276 
     46 CB         25.7300   32.6616    2.2618 C.3       7 UNK        -0.1927 
     47 C          28.0232   33.3019    1.3892 C.2       7 UNK         0.5013 
     48 O          28.2019   34.4116    0.8850 O.2       7 UNK        -0.5193 
     49 N          28.5784   32.1719    0.9296 N.am      8 UNK        -0.4253 
     50 CA         29.5661   32.1219   -0.1498 C.3       8 UNK         0.0242 
     51 CB         29.3051   30.9113   -1.0616 C.3       8 UNK        -0.2000 
     52 C          30.9840   32.0639    0.4297 C.2       8 UNK         0.4948 
     53 O          31.8491   32.8124   -0.0271 O.2       8 UNK        -0.5275 
     54 N          31.1988   31.1949    1.4265 N.am      9 UNK        -0.4246 
     55 CA         32.4727   31.0341    2.1204 C.3       9 UNK         0.0261 
     56 CB         33.4113   30.1216    1.3086 C.3       9 UNK        -0.1959 
     57 C          32.2158   30.4343    3.5018 C.2       9 UNK         0.5033 
     58 O          31.4038   29.5139    3.6197 O.2       9 UNK        -0.5390 
     59 N          32.9213   30.9415    4.5189 N.am      10 UNK        -0.4215 
     60 CA         32.9534   30.3508    5.8609 C.3       10 UNK         0.0240 
     61 CB         33.2518   31.4420    6.9023 C.3       10 UNK        -0.1982 
     62 C          33.9856   29.2142    5.9469 C.2       10 UNK         0.4970 
     63 O          33.7144   28.2108    6.6041 O.2       10 UNK        -0.4916 
     64 N          35.1314   29.4102    5.2750 N.am      11 UNK        -0.4279 
     65 CA         36.2767   28.4958    5.1071 C.3       11 UNK         0.1003 
     66 C          36.9322   27.9113    6.3980 C.2       11 UNK         0.5709 
     67 N          36.6671   28.4541    7.5797 N.am      11 UNK        -0.7358 
     68 O          37.7391   26.9870    6.3256 O.2       11 UNK        -0.4999 
     69 C69        36.0741   27.4715    3.9516 C.3       12 UNK        -0.0954 
     70 S70        34.9286   26.0971    4.3023 S.3       12 UNK        -0.2268 
     71 C71        33.4972   26.5561    3.2803 C.3       12 UNK         0.0203 
     72 H72        25.0513   18.1045    1.0182 H         1 UNK         0.0888 
     73 H73        24.8147   19.7172    1.6943 H         1 UNK         0.0888 
     74 H74        24.0381   19.2776    0.1719 H         1 UNK         0.0888 
     75 H75        26.5589   21.0782    1.3555 H         1 UNK         0.3017 
     76 H76        28.6293   20.4726   -0.5716 H         1 UNK         0.0873 
     77 H77        28.4111   23.0232    1.1250 H         1 UNK         0.0745 
     78 H78        28.9328   21.5034    1.7933 H         1 UNK         0.0745 
     79 H79        32.5807   21.9473    1.5167 H         1 UNK         0.0705 
     80 H80        31.2054   21.2601    2.3333 H         1 UNK         0.0705 
     81 H81        33.2206   24.2876    1.8142 H         1 UNK         0.1334 
     82 H82        31.3841   26.4869    5.0040 H         1 UNK         0.1417 
     83 H83        29.7330   22.7260    3.7604 H         1 UNK         0.1562 
     84 H84        29.6933   25.3571    6.3826 H         1 UNK         0.0748 
     85 H85        29.2047   23.7325    6.0027 H         1 UNK         0.0748 
     86 H86        28.3122   27.1599    6.3412 H         1 UNK         0.0940 
     87 H87        26.6806   27.2342    5.7474 H         1 UNK         0.0940 
     88 H88        29.2006   27.8854    4.1371 H         1 UNK         0.0703 
     89 H89        26.7815   27.0914    3.0778 H         1 UNK         0.3081 
     90 H90        26.1357   27.3160    1.0184 H         1 UNK         0.0719 
     91 H91        26.5041   30.1780   -0.0249 H         1 UNK         0.0809 
     92 H92        25.3973   28.9862   -0.7024 H         1 UNK         0.0809 
     93 H93        25.1613   29.5680    0.9344 H         1 UNK         0.0809 
     94 H94        28.0135   28.3927   -0.9621 H         1 UNK         0.2990 
     95 H95        29.3975   27.0747   -2.0683 H         1 UNK         0.0690 
     96 H96        31.6209   26.1913   -1.3410 H         1 UNK         0.0788 
     97 H97        30.9056   25.5789    0.1506 H         1 UNK         0.0788 
     98 H98        30.9731   27.3088   -0.1490 H         1 UNK         0.0788 
     99 H99        29.6945   24.1994   -1.4916 H         1 UNK         0.2993 
    100 H100       27.2474   23.1822   -3.8177 H         1 UNK         0.0949 
    101 H101       30.2875   23.0253   -4.2196 H         1 UNK         0.0767 
    102 H102       29.0939   21.9334   -4.9242 H         1 UNK         0.0767 
    103 H103       29.1289   23.6231   -5.3995 H         1 UNK         0.0767 
    104 H104       29.3178   21.8539   -2.2779 H         1 UNK         0.3013 
    105 H105       29.9578   29.7868    4.6714 H         1 UNK         0.3121 
    106 H106       30.3362   31.7628    5.5489 H         1 UNK         0.0774 
    107 H107       28.8800   32.8915    7.1686 H         1 UNK         0.0815 
    108 H108       27.5509   31.8040    6.8112 H         1 UNK         0.0815 
    109 H109       29.0161   31.1890    7.5773 H         1 UNK         0.0815 
    110 H110       27.2270   31.4699    3.8960 H         1 UNK         0.2987 
    111 H111       27.0089   34.1903    3.0435 H         1 UNK         0.0949 
    112 H112       25.2869   33.2559    1.4614 H         1 UNK         0.0806 
    113 H113       25.7670   31.6279    1.9221 H         1 UNK         0.0806 
    114 H114       25.0514   32.7082    3.1137 H         1 UNK         0.0806 
    115 H115       28.3915   31.2938    1.4112 H         1 UNK         0.3010 
    116 H116       29.4912   33.0203   -0.7667 H         1 UNK         0.0829 
    117 H117       28.3006   30.9411   -1.4827 H         1 UNK         0.0813 
    118 H118       30.0052   30.9012   -1.8980 H         1 UNK         0.0813 
    119 H119       29.4272   29.9686   -0.5295 H         1 UNK         0.0813 
    120 H120       30.4446   30.6035    1.7609 H         1 UNK         0.3038 
    121 H121       32.9383   32.0145    2.2435 H         1 UNK         0.0769 
    122 H122       32.9684   29.1386    1.1419 H         1 UNK         0.0811 
    123 H123       34.3584   29.9696    1.8278 H         1 UNK         0.0811 
    124 H124       33.6428   30.5528    0.3346 H         1 UNK         0.0811 
    125 H125       33.5329   31.7272    4.3467 H         1 UNK         0.3204 
    126 H126       31.9750   29.9253    6.0950 H         1 UNK         0.0748 
    127 H127       33.2629   31.0249    7.9104 H         1 UNK         0.0771 
    128 H128       34.2201   31.9150    6.7343 H         1 UNK         0.0771 
    129 H129       32.4911   32.2230    6.8866 H         1 UNK         0.0771 
    130 H130       35.2457   30.2975    4.8107 H         1 UNK         0.2980 
    131 H131       37.0587   29.1645    4.7456 H         1 UNK         0.0545 
    132 H132       36.0012   29.2050    7.6584 H         1 UNK         0.3459 
    133 H133       37.1100   28.0807    8.4043 H         1 UNK         0.3459 
    134 H134       37.0346   27.0291    3.6823 H         1 UNK         0.0616 
    135 H135       35.7427   27.9946    3.0535 H         1 UNK         0.0616 
    136 H136       33.8066   26.6690    2.2401 H         1 UNK         0.0634 
    137 H137       33.1198   27.5255    3.6020 H         1 UNK         0.0634 
@<TRIPOS>BOND
     1    1    2 1    
     2    1   72 1    
     3    1   73 1    
     4    1   74 1    
     5    2    3 2    
     6    2    4 am   BACKBONE|DICT|INTERRES
     7    4    5 1    
     8    4   75 1    
     9    5    6 1    
    10    5   35 1    
    11    5   76 1    
    12    6    7 1    
    13    6   77 1    
    14    6   78 1    
    15    7    8 1    
    16    8    9 1    
    17    8   79 1    
    18    8   80 1    
    19    9   10 ar   
    20    9   14 ar   
    21   10   11 ar   
    22   10   81 1    
    23   11   12 ar   
    24   11   71 1    
    25   12   13 ar   
    26   12   82 1    
    27   13   14 ar   
    28   13   15 1    
    29   14   83 1    
    30   15   16 1    
    31   15   84 1    
    32   15   85 1    
    33   16   17 1    
    34   17   18 1    
    35   17   86 1    
    36   17   87 1    
    37   18   19 1    
    38   18   37 1    
    39   18   88 1    
    40   19   20 am   BACKBONE|DICT|INTERRES
    41   19   89 1    
    42   20   21 2    
    43   20   22 1    
    44   22   23 1    
    45   22   24 1    
    46   22   90 1    
    47   23   91 1    
    48   23   92 1    
    49   23   93 1    
    50   24   25 am   BACKBONE|DICT|INTERRES
    51   24   94 1    
    52   25   26 2    
    53   25   27 1    
    54   27   28 1    
    55   27   29 1    
    56   27   95 1    
    57   28   96 1    
    58   28   97 1    
    59   28   98 1    
    60   29   30 am   BACKBONE|DICT|INTERRES
    61   29   99 1    
    62   30   31 2    
    63   30   32 1    
    64   32   33 1    
    65   32   34 1    
    66   32  100 1    
    67   33  101 1    
    68   33  102 1    
    69   33  103 1    
    70   34   35 am   BACKBONE|DICT|INTERRES
    71   34  104 1    
    72   35   36 2    
    73   37   38 2    
    74   37   39 am   BACKBONE|DICT|INTERRES
    75   39   40 1    
    76   39  105 1    
    77   40   41 1    
    78   40   42 1    
    79   40  106 1    
    80   41  107 1    
    81   41  108 1    
    82   41  109 1    
    83   42   43 2    
    84   42   44 am   BACKBONE|DICT|INTERRES
    85   44   45 1    
    86   44  110 1    
    87   45   46 1    
    88   45   47 1    
    89   45  111 1    
    90   46  112 1    
    91   46  113 1    
    92   46  114 1    
    93   47   48 2    
    94   47   49 am   BACKBONE|DICT|INTERRES
    95   49   50 1    
    96   49  115 1    
    97   50   51 1    
    98   50   52 1    
    99   50  116 1    
   100   51  117 1    
   101   51  118 1    
   102   51  119 1    
   103   52   53 2    
   104   52   54 am   BACKBONE|DICT|INTERRES
   105   54   55 1    
   106   54  120 1    
   107   55   56 1    
   108   55   57 1    
   109   55  121 1    
   110   56  122 1    
   111   56  123 1    
   112   56  124 1    
   113   57   58 2    
   114   57   59 am   BACKBONE|DICT|INTERRES
   115   59   60 1    
   116   59  125 1    
   117   60   61 1    
   118   60   62 1    
   119   60  126 1    
   120   61  127 1    
   121   61  128 1    
   122   61  129 1    
   123   62   63 2    
   124   62   64 am   BACKBONE|DICT|INTERRES
   125   64   65 1    
   126   64  130 1    
   127   65   66 1    
   128   65   69 1    
   129   65  131 1    
   130   66   67 am   BACKBONE|DICT|INTERRES
   131   66   68 2    
   132   67  132 1    
   133   67  133 1    
   134   69   70 1    
   135   69  134 1    
   136   69  135 1    
   137   70   71 1    
   138   71  136 1    
   139   71  137 1    
@<TRIPOS>SUBSTRUCTURE
     1 UNK         1 GROUP             0       ****    0 ROOT    
