@<TRIPOS>MOLECULE
3R136
137   139    1
SMALL
USER_CHARGES


@<TRIPOS>ATOM
      1 CA         27.8827   21.5862   -0.1875 C.3       0 UNK        -0.1979 
      2 C          28.0316   22.9282   -0.8850 C.2       0 UNK         0.4864 
      3 O          27.2109   23.2693   -1.7379 O.2       0 UNK        -0.5359 
      4 N          29.0731   23.6953   -0.5352 N.am      1 UNK        -0.4318 
      5 CA         29.3618   25.0161   -1.1081 C.3       1 UNK         0.0824 
      6 C6         30.7485   25.5537   -0.6940 C.3       12 UNK        -0.0944 
      7 S7         32.0905   24.4109   -1.1647 S.3       12 UNK        -0.2672 
      8 C8         33.3643   24.7793    0.0883 C.3       12 UNK         0.0333 
      9 C9         32.9115   24.5222    1.5227 C.ar      12 UNK        -0.0807 
     10 C10        33.1928   25.4677    2.5143 C.ar      12 UNK        -0.0894 
     11 C11        32.7985   25.2512    3.8366 C.ar      12 UNK        -0.0804 
     12 C12        32.1169   24.0771    4.1668 C.ar      12 UNK        -0.0824 
     13 C13        31.8279   23.1214    3.1874 C.ar      12 UNK        -0.0762 
     14 C14        32.2387   23.3441    1.8699 C.ar      12 UNK        -0.0782 
     15 C15        31.0902   21.8405    3.5572 C.3       12 UNK         0.0230 
     16 S16        29.3234   21.8977    3.1077 S.3       12 UNK        -0.2608 
     17 C17        28.7210   23.2833    4.1271 C.3       12 UNK        -0.0989 
     18 CA         28.3558   24.5071    3.2391 C.3       5 UNK         0.0716 
     19 N          27.0415   24.4153    2.5836 N.am      5 UNK        -0.4135 
     20 C          25.8499   24.3896    3.2031 C.2       4 UNK         0.5031 
     21 O          25.7143   24.2101    4.4139 O.2       4 UNK        -0.5229 
     22 CA         24.5799   24.6410    2.3727 C.3       4 UNK         0.0329 
     23 CB         23.8592   25.9148    2.8574 C.3       4 UNK        -0.2001 
     24 N          24.7990   24.7447    0.9256 N.am      4 UNK        -0.4303 
     25 C          23.9036   24.3419    0.0103 C.2       3 UNK         0.5044 
     26 O          22.8692   23.7368    0.2989 O.2       3 UNK        -0.5152 
     27 CA         24.1879   24.6515   -1.4748 C.3       3 UNK         0.0319 
     28 CB         22.9123   25.0519   -2.2473 C.3       3 UNK        -0.2001 
     29 N          25.2671   25.6211   -1.6986 N.am      3 UNK        -0.4354 
     30 C          25.2967   26.9261   -1.3768 C.2       2 UNK         0.4964 
     31 O          24.3516   27.5254   -0.8635 O.2       2 UNK        -0.5047 
     32 CA         26.6166   27.6820   -1.6584 C.3       2 UNK         0.0288 
     33 CB         26.8555   28.8395   -0.6638 C.3       2 UNK        -0.2113 
     34 N          27.7916   26.7981   -1.7265 N.am      2 UNK        -0.4145 
     35 C          28.2533   26.0190   -0.7377 C.2       1 UNK         0.5006 
     36 O          27.8059   26.0304    0.4133 O.2       1 UNK        -0.5103 
     37 C          28.4591   25.8658    3.9614 C.2       5 UNK         0.5055 
     38 O          28.5962   25.9215    5.1849 O.2       5 UNK        -0.5220 
     39 N          28.3281   26.9378    3.1696 N.am      6 UNK        -0.4450 
     40 CA         28.3000   28.3242    3.6263 C.3       6 UNK         0.0367 
     41 CB         26.8435   28.7429    3.9080 C.3       6 UNK        -0.1929 
     42 C          29.0012   29.2263    2.6008 C.2       6 UNK         0.5070 
     43 O          28.4301   30.2264    2.1636 O.2       6 UNK        -0.5237 
     44 N          30.2282   28.8511    2.2148 N.am      7 UNK        -0.4739 
     45 CA         31.0978   29.6542    1.3532 C.3       7 UNK         0.0276 
     46 CB         32.2709   28.7904    0.8614 C.3       7 UNK        -0.1927 
     47 C          31.6209   30.8651    2.1372 C.2       7 UNK         0.5013 
     48 O          32.4624   30.6780    3.0155 O.2       7 UNK        -0.5193 
     49 N          31.1275   32.0689    1.8170 N.am      8 UNK        -0.4253 
     50 CA         31.3586   33.3221    2.5539 C.3       8 UNK         0.0242 
     51 CB         30.6412   34.4699    1.8241 C.3       8 UNK        -0.2000 
     52 C          32.8308   33.6988    2.8191 C.2       8 UNK         0.4948 
     53 O          33.1048   34.4097    3.7866 O.2       8 UNK        -0.5275 
     54 N          33.7482   33.2208    1.9687 N.am      9 UNK        -0.4246 
     55 CA         35.1933   33.3978    2.1169 C.3       9 UNK         0.0261 
     56 CB         35.8603   33.1767    0.7486 C.3       9 UNK        -0.1959 
     57 C          35.8331   32.4769    3.1760 C.2       9 UNK         0.5033 
     58 O          36.9547   32.7658    3.5973 O.2       9 UNK        -0.5390 
     59 N          35.1543   31.3866    3.5626 N.am      10 UNK        -0.4215 
     60 CA         35.6853   30.3434    4.4469 C.3       10 UNK         0.0240 
     61 CB         35.8651   29.0486    3.6351 C.3       10 UNK        -0.1982 
     62 C          34.7957   30.0778    5.6710 C.2       10 UNK         0.4970 
     63 O          35.3296   29.7619    6.7352 O.2       10 UNK        -0.4916 
     64 N          33.4744   30.1848    5.5100 N.am      11 UNK        -0.4279 
     65 CA         32.4599   29.8492    6.5132 C.3       11 UNK         0.1003 
     66 C          31.1564   30.6715    6.2986 C.2       11 UNK         0.5709 
     67 N          30.0060   30.1893    6.7508 N.am      11 UNK        -0.7358 
     68 O          31.1820   31.7815    5.7725 O.2       11 UNK        -0.4999 
     69 C69        32.2676   28.3102    6.6584 C.3       12 UNK        -0.0954 
     70 S70        31.7711   27.4705    5.1125 S.3       12 UNK        -0.2268 
     71 C71        33.1222   26.2726    4.9155 C.3       12 UNK         0.0203 
     72 H72        27.4983   20.8391   -0.8814 H         1 UNK         0.0888 
     73 H73        28.8376   21.2267    0.1949 H         1 UNK         0.0888 
     74 H74        27.1855   21.6708    0.6457 H         1 UNK         0.0888 
     75 H75        29.7216   23.3718    0.1671 H         1 UNK         0.3017 
     76 H76        29.3619   24.8957   -2.1939 H         1 UNK         0.0873 
     77 H77        30.7772   25.7414    0.3810 H         1 UNK         0.0745 
     78 H78        30.9418   26.5080   -1.1865 H         1 UNK         0.0745 
     79 H79        34.2424   24.1652   -0.1148 H         1 UNK         0.0705 
     80 H80        33.6776   25.8170   -0.0375 H         1 UNK         0.0705 
     81 H81        33.7311   26.3700    2.2617 H         1 UNK         0.1334 
     82 H82        31.8140   23.9092    5.1913 H         1 UNK         0.1417 
     83 H83        32.0309   22.5998    1.1133 H         1 UNK         0.1562 
     84 H84        31.1827   21.6375    4.6254 H         1 UNK         0.0748 
     85 H85        31.5545   20.9942    3.0488 H         1 UNK         0.0748 
     86 H86        29.4883   23.5360    4.8584 H         1 UNK         0.0940 
     87 H87        27.8731   22.9417    4.7199 H         1 UNK         0.0940 
     88 H88        29.0960   24.5646    2.4387 H         1 UNK         0.0703 
     89 H89        27.0671   24.6304    1.5955 H         1 UNK         0.3081 
     90 H90        23.9336   23.7850    2.5783 H         1 UNK         0.0719 
     91 H91        23.6629   25.8782    3.9298 H         1 UNK         0.0809 
     92 H92        24.4537   26.8083    2.6633 H         1 UNK         0.0809 
     93 H93        22.8970   26.0402    2.3606 H         1 UNK         0.0809 
     94 H94        25.6057   25.2660    0.6094 H         1 UNK         0.2990 
     95 H95        24.5418   23.7135   -1.9045 H         1 UNK         0.0690 
     96 H96        23.1304   25.2575   -3.2952 H         1 UNK         0.0788 
     97 H97        22.4404   25.9378   -1.8215 H         1 UNK         0.0788 
     98 H98        22.1726   24.2506   -2.2247 H         1 UNK         0.0788 
     99 H99        26.1119   25.2083   -2.0763 H         1 UNK         0.2993 
    100 H100       26.5043   28.1189   -2.6519 H         1 UNK         0.0949 
    101 H101       26.8548   28.4946    0.3704 H         1 UNK         0.0767 
    102 H102       27.8076   29.3367   -0.8489 H         1 UNK         0.0767 
    103 H103       26.0746   29.5960   -0.7492 H         1 UNK         0.0767 
    104 H104       28.2197   26.7199   -2.6394 H         1 UNK         0.3013 
    105 H105       28.2085   26.7932    2.1694 H         1 UNK         0.3121 
    106 H106       28.8678   28.4173    4.5545 H         1 UNK         0.0774 
    107 H107       26.2311   28.6931    3.0069 H         1 UNK         0.0815 
    108 H108       26.3849   28.1022    4.6613 H         1 UNK         0.0815 
    109 H109       26.7963   29.7666    4.2813 H         1 UNK         0.0815 
    110 H110       30.6477   28.0481    2.6629 H         1 UNK         0.2987 
    111 H111       30.5275   29.9941    0.4858 H         1 UNK         0.0949 
    112 H112       31.9239   27.9251    0.3036 H         1 UNK         0.0806 
    113 H113       32.9252   29.3602    0.2006 H         1 UNK         0.0806 
    114 H114       32.8808   28.4303    1.6895 H         1 UNK         0.0806 
    115 H115       30.4265   32.1105    1.0907 H         1 UNK         0.3010 
    116 H116       30.8884   33.2001    3.5312 H         1 UNK         0.0829 
    117 H117       31.0323   34.6132    0.8160 H         1 UNK         0.0813 
    118 H118       30.7655   35.4127    2.3590 H         1 UNK         0.0813 
    119 H119       29.5696   34.2846    1.7474 H         1 UNK         0.0813 
    120 H120       33.4323   32.6532    1.1959 H         1 UNK         0.3038 
    121 H121       35.3854   34.4281    2.4243 H         1 UNK         0.0769 
    122 H122       35.4735   33.8696    0.0010 H         1 UNK         0.0811 
    123 H123       35.7032   32.1616    0.3815 H         1 UNK         0.0811 
    124 H124       36.9377   33.3376    0.8086 H         1 UNK         0.0811 
    125 H125       34.2109   31.2415    3.2090 H         1 UNK         0.3204 
    126 H126       36.6644   30.6348    4.8326 H         1 UNK         0.0748 
    127 H127       34.9205   28.7067    3.2101 H         1 UNK         0.0771 
    128 H128       36.5685   29.1914    2.8147 H         1 UNK         0.0771 
    129 H129       36.2550   28.2438    4.2599 H         1 UNK         0.0771 
    130 H130       33.0884   30.4470    4.6032 H         1 UNK         0.2980 
    131 H131       32.8322   30.2141    7.4719 H         1 UNK         0.0545 
    132 H132       29.9608   29.2850    7.1922 H         1 UNK         0.3459 
    133 H133       29.1697   30.7396    6.6406 H         1 UNK         0.3459 
    134 H134       31.5327   28.0776    7.4298 H         1 UNK         0.0616 
    135 H135       33.1980   27.8703    7.0194 H         1 UNK         0.0616 
    136 H136       34.0442   26.8040    4.6771 H         1 UNK         0.0634 
    137 H137       33.2954   25.7609    5.8635 H         1 UNK         0.0634 
@<TRIPOS>BOND
     1    1    2 1    
     2    1   72 1    
     3    1   73 1    
     4    1   74 1    
     5    2    3 2    
     6    2    4 am   BACKBONE|DICT|INTERRES
     7    4    5 1    
     8    4   75 1    
     9    5    6 1    
    10    5   35 1    
    11    5   76 1    
    12    6    7 1    
    13    6   77 1    
    14    6   78 1    
    15    7    8 1    
    16    8    9 1    
    17    8   79 1    
    18    8   80 1    
    19    9   10 ar   
    20    9   14 ar   
    21   10   11 ar   
    22   10   81 1    
    23   11   12 ar   
    24   11   71 1    
    25   12   13 ar   
    26   12   82 1    
    27   13   14 ar   
    28   13   15 1    
    29   14   83 1    
    30   15   16 1    
    31   15   84 1    
    32   15   85 1    
    33   16   17 1    
    34   17   18 1    
    35   17   86 1    
    36   17   87 1    
    37   18   19 1    
    38   18   37 1    
    39   18   88 1    
    40   19   20 am   BACKBONE|DICT|INTERRES
    41   19   89 1    
    42   20   21 2    
    43   20   22 1    
    44   22   23 1    
    45   22   24 1    
    46   22   90 1    
    47   23   91 1    
    48   23   92 1    
    49   23   93 1    
    50   24   25 am   BACKBONE|DICT|INTERRES
    51   24   94 1    
    52   25   26 2    
    53   25   27 1    
    54   27   28 1    
    55   27   29 1    
    56   27   95 1    
    57   28   96 1    
    58   28   97 1    
    59   28   98 1    
    60   29   30 am   BACKBONE|DICT|INTERRES
    61   29   99 1    
    62   30   31 2    
    63   30   32 1    
    64   32   33 1    
    65   32   34 1    
    66   32  100 1    
    67   33  101 1    
    68   33  102 1    
    69   33  103 1    
    70   34   35 am   BACKBONE|DICT|INTERRES
    71   34  104 1    
    72   35   36 2    
    73   37   38 2    
    74   37   39 am   BACKBONE|DICT|INTERRES
    75   39   40 1    
    76   39  105 1    
    77   40   41 1    
    78   40   42 1    
    79   40  106 1    
    80   41  107 1    
    81   41  108 1    
    82   41  109 1    
    83   42   43 2    
    84   42   44 am   BACKBONE|DICT|INTERRES
    85   44   45 1    
    86   44  110 1    
    87   45   46 1    
    88   45   47 1    
    89   45  111 1    
    90   46  112 1    
    91   46  113 1    
    92   46  114 1    
    93   47   48 2    
    94   47   49 am   BACKBONE|DICT|INTERRES
    95   49   50 1    
    96   49  115 1    
    97   50   51 1    
    98   50   52 1    
    99   50  116 1    
   100   51  117 1    
   101   51  118 1    
   102   51  119 1    
   103   52   53 2    
   104   52   54 am   BACKBONE|DICT|INTERRES
   105   54   55 1    
   106   54  120 1    
   107   55   56 1    
   108   55   57 1    
   109   55  121 1    
   110   56  122 1    
   111   56  123 1    
   112   56  124 1    
   113   57   58 2    
   114   57   59 am   BACKBONE|DICT|INTERRES
   115   59   60 1    
   116   59  125 1    
   117   60   61 1    
   118   60   62 1    
   119   60  126 1    
   120   61  127 1    
   121   61  128 1    
   122   61  129 1    
   123   62   63 2    
   124   62   64 am   BACKBONE|DICT|INTERRES
   125   64   65 1    
   126   64  130 1    
   127   65   66 1    
   128   65   69 1    
   129   65  131 1    
   130   66   67 am   BACKBONE|DICT|INTERRES
   131   66   68 2    
   132   67  132 1    
   133   67  133 1    
   134   69   70 1    
   135   69  134 1    
   136   69  135 1    
   137   70   71 1    
   138   71  136 1    
   139   71  137 1    
@<TRIPOS>SUBSTRUCTURE
     1 UNK         1 GROUP             0       ****    0 ROOT    
