@<TRIPOS>MOLECULE
3R136
137   139    1
SMALL
USER_CHARGES


@<TRIPOS>ATOM
      1 CA         30.4523   17.0275   -0.1848 C.3       0 UNK        -0.1979 
      2 C          29.9117   18.4444   -0.3038 C.2       0 UNK         0.4864 
      3 O          28.9535   18.6758   -1.0440 O.2       0 UNK        -0.5359 
      4 N          30.5060   19.3978    0.4269 N.am      1 UNK        -0.4318 
      5 CA         30.1289   20.8168    0.4509 C.3       1 UNK         0.0824 
      6 C6         31.3354   21.7068    0.8678 C.3       12 UNK        -0.0944 
      7 S7         31.3578   23.3364    0.0462 S.3       12 UNK        -0.2672 
      8 C8         30.3203   24.3193    1.1735 C.3       12 UNK         0.0333 
      9 C9         30.4614   25.8185    0.9506 C.ar      12 UNK        -0.0807 
     10 C10        30.7866   26.6526    2.0237 C.ar      12 UNK        -0.0894 
     11 C11        30.8319   28.0401    1.8599 C.ar      12 UNK        -0.0804 
     12 C12        30.6059   28.5896    0.5953 C.ar      12 UNK        -0.0824 
     13 C13        30.2741   27.7677   -0.4867 C.ar      12 UNK        -0.0762 
     14 C14        30.1952   26.3844   -0.3004 C.ar      12 UNK        -0.0782 
     15 C15        29.9945   28.3695   -1.8570 C.3       12 UNK         0.0230 
     16 S16        28.2141   28.6547   -2.1296 S.3       12 UNK        -0.2608 
     17 C17        27.8767   30.0248   -0.9707 C.3       12 UNK        -0.0989 
     18 CA         26.9299   29.6512    0.2029 C.3       5 UNK         0.0716 
     19 N          27.2620   28.3656    0.8319 N.am      5 UNK        -0.4135 
     20 C          26.4194   27.6564    1.5938 C.2       4 UNK         0.5031 
     21 O          25.2802   28.0243    1.8880 O.2       4 UNK        -0.5229 
     22 CA         26.9242   26.2973    2.1039 C.3       4 UNK         0.0329 
     23 CB         26.7993   26.1875    3.6323 C.3       4 UNK        -0.2001 
     24 N          26.1946   25.1968    1.4742 N.am      4 UNK        -0.4303 
     25 C          26.2951   24.8563    0.1833 C.2       3 UNK         0.5044 
     26 O          27.0845   25.3790   -0.6035 O.2       3 UNK        -0.5152 
     27 CA         25.3870   23.7112   -0.2934 C.3       3 UNK         0.0319 
     28 CB         25.2123   23.6999   -1.8237 C.3       3 UNK        -0.2001 
     29 N          25.9338   22.4233    0.1287 N.am      3 UNK        -0.4354 
     30 C          25.7529   21.8671    1.3340 C.2       2 UNK         0.4964 
     31 O          25.0733   22.3754    2.2268 O.2       2 UNK        -0.5047 
     32 CA         26.4488   20.5189    1.5844 C.3       2 UNK         0.0288 
     33 CB         25.5517   19.3545    1.1342 C.3       2 UNK        -0.2113 
     34 N          27.7462   20.4199    0.9101 N.am      2 UNK        -0.4145 
     35 C          28.8640   21.0355    1.3177 C.2       1 UNK         0.5006 
     36 O          28.9176   21.7150    2.3444 O.2       1 UNK        -0.5103 
     37 C          26.8853   30.8188    1.2114 C.2       5 UNK         0.5055 
     38 O          26.2669   31.8399    0.9084 O.2       5 UNK        -0.5220 
     39 N          27.5741   30.6676    2.3567 N.am      6 UNK        -0.4450 
     40 CA         27.7992   31.6834    3.3964 C.3       6 UNK         0.0367 
     41 CB         26.4764   32.0782    4.0869 C.3       6 UNK        -0.1929 
     42 C          28.6022   32.8969    2.8814 C.2       6 UNK         0.5070 
     43 O          28.3508   34.0275    3.3012 O.2       6 UNK        -0.5237 
     44 N          29.5501   32.6384    1.9703 N.am      7 UNK        -0.4739 
     45 CA         30.3410   33.6503    1.2664 C.3       7 UNK         0.0276 
     46 CB         29.5967   34.0810   -0.0141 C.3       7 UNK        -0.1927 
     47 C          31.7719   33.1564    0.9891 C.2       7 UNK         0.5013 
     48 O          32.3350   33.4709   -0.0608 O.2       7 UNK        -0.5193 
     49 N          32.3407   32.3906    1.9273 N.am      8 UNK        -0.4253 
     50 CA         33.7163   31.8969    1.8986 C.3       8 UNK         0.0242 
     51 CB         33.8290   30.6453    1.0068 C.3       8 UNK        -0.2000 
     52 C          34.1511   31.5961    3.3361 C.2       8 UNK         0.4948 
     53 O          33.2937   31.3688    4.1942 O.2       8 UNK        -0.5275 
     54 N          35.4715   31.5720    3.5667 N.am      9 UNK        -0.4246 
     55 CA         36.1097   31.4071    4.8810 C.3       9 UNK         0.0261 
     56 CB         37.6363   31.4875    4.7191 C.3       9 UNK        -0.1959 
     57 C          35.7197   30.1270    5.6422 C.2       9 UNK         0.5033 
     58 O          35.6946   30.1456    6.8737 O.2       9 UNK        -0.5390 
     59 N          35.3758   29.0591    4.9076 N.am      10 UNK        -0.4215 
     60 CA         34.8627   27.7923    5.4422 C.3       10 UNK         0.0240 
     61 CB         34.7078   26.7859    4.2892 C.3       10 UNK        -0.1982 
     62 C          33.5372   27.9251    6.2197 C.2       10 UNK         0.4970 
     63 O          33.2493   27.0696    7.0575 O.2       10 UNK        -0.4916 
     64 N          32.7694   28.9849    5.9384 N.am      11 UNK        -0.4279 
     65 CA         31.5224   29.3388    6.6263 C.3       11 UNK         0.1003 
     66 C          31.7455   30.2833    7.8446 C.2       11 UNK         0.5709 
     67 N          32.9686   30.6850    8.1760 N.am      11 UNK        -0.7358 
     68 O          30.7865   30.6467    8.5214 O.2       11 UNK        -0.4999 
     69 C69        30.4835   29.9173    5.6280 C.3       12 UNK        -0.0954 
     70 S70        29.9258   28.6917    4.3961 S.3       12 UNK        -0.2268 
     71 C71        31.1258   28.9409    3.0496 C.3       12 UNK         0.0203 
     72 H72        29.6731   16.3583    0.1791 H         1 UNK         0.0888 
     73 H73        30.7818   16.6693   -1.1597 H         1 UNK         0.0888 
     74 H74        31.2974   16.9695    0.5011 H         1 UNK         0.0888 
     75 H75        31.2644   19.1402    1.0429 H         1 UNK         0.3017 
     76 H76        29.8555   21.0918   -0.5706 H         1 UNK         0.0873 
     77 H77        31.4233   21.8195    1.9500 H         1 UNK         0.0745 
     78 H78        32.2662   21.2250    0.5633 H         1 UNK         0.0745 
     79 H79        29.2750   24.0450    1.0275 H         1 UNK         0.0705 
     80 H80        30.5686   24.0626    2.2045 H         1 UNK         0.0705 
     81 H81        30.9700   26.2276    3.0014 H         1 UNK         0.1334 
     82 H82        30.6804   29.6584    0.4548 H         1 UNK         0.1417 
     83 H83        29.9141   25.7455   -1.1272 H         1 UNK         0.1562 
     84 H84        30.3629   27.6966   -2.6329 H         1 UNK         0.0748 
     85 H85        30.5414   29.3049   -1.9863 H         1 UNK         0.0748 
     86 H86        27.4304   30.8351   -1.5509 H         1 UNK         0.0940 
     87 H87        28.8206   30.4297   -0.6065 H         1 UNK         0.0940 
     88 H88        25.9238   29.5532   -0.2114 H         1 UNK         0.0703 
     89 H89        28.1500   27.9573    0.5692 H         1 UNK         0.3081 
     90 H90        27.9775   26.1961    1.8506 H         1 UNK         0.0719 
     91 H91        25.7599   26.2355    3.9593 H         1 UNK         0.0809 
     92 H92        27.2239   25.2520    3.9971 H         1 UNK         0.0809 
     93 H93        27.3341   26.9995    4.1263 H         1 UNK         0.0809 
     94 H94        25.5407   24.6875    2.0543 H         1 UNK         0.2990 
     95 H95        24.3997   23.8539    0.1518 H         1 UNK         0.0690 
     96 H96        24.5145   22.9230   -2.1368 H         1 UNK         0.0788 
     97 H97        26.1576   23.5295   -2.3407 H         1 UNK         0.0788 
     98 H98        24.8155   24.6528   -2.1766 H         1 UNK         0.0788 
     99 H99        26.5305   21.9489   -0.5328 H         1 UNK         0.2993 
    100 H100       26.6106   20.4277    2.6610 H         1 UNK         0.0949 
    101 H101       26.0033   18.3915    1.3742 H         1 UNK         0.0767 
    102 H102       24.5834   19.3915    1.6356 H         1 UNK         0.0767 
    103 H103       25.3648   19.3786    0.0598 H         1 UNK         0.0767 
    104 H104       27.8116   19.8210    0.0914 H         1 UNK         0.3013 
    105 H105       28.0287   29.7787    2.5127 H         1 UNK         0.3121 
    106 H106       28.4249   31.2162    4.1547 H         1 UNK         0.0774 
    107 H107       26.6633   32.7151    4.9523 H         1 UNK         0.0815 
    108 H108       25.8159   32.6293    3.4170 H         1 UNK         0.0815 
    109 H109       25.9377   31.2000    4.4427 H         1 UNK         0.0815 
    110 H110       29.7003   31.6813    1.6895 H         1 UNK         0.2987 
    111 H111       30.4527   34.5293    1.9053 H         1 UNK         0.0949 
    112 H112       29.4862   33.2504   -0.7121 H         1 UNK         0.0806 
    113 H113       28.6003   34.4597    0.2142 H         1 UNK         0.0806 
    114 H114       30.1312   34.8779   -0.5328 H         1 UNK         0.0806 
    115 H115       31.8613   32.2253    2.8042 H         1 UNK         0.3010 
    116 H116       34.3633   32.6839    1.5044 H         1 UNK         0.0829 
    117 H117       33.4820   30.8440   -0.0072 H         1 UNK         0.0813 
    118 H118       34.8644   30.3118    0.9297 H         1 UNK         0.0813 
    119 H119       33.2505   29.8103    1.3986 H         1 UNK         0.0813 
    120 H120       36.0946   31.7514    2.7918 H         1 UNK         0.3038 
    121 H121       35.7895   32.2498    5.4975 H         1 UNK         0.0769 
    122 H122       38.0171   30.6937    4.0752 H         1 UNK         0.0811 
    123 H123       38.1372   31.3925    5.6838 H         1 UNK         0.0811 
    124 H124       37.9419   32.4432    4.2927 H         1 UNK         0.0811 
    125 H125       35.4325   29.1400    3.9031 H         1 UNK         0.3204 
    126 H126       35.6077   27.4042    6.1399 H         1 UNK         0.0748 
    127 H127       35.6601   26.6027    3.7910 H         1 UNK         0.0771 
    128 H128       34.3476   25.8237    4.6562 H         1 UNK         0.0771 
    129 H129       33.9970   27.1332    3.5384 H         1 UNK         0.0771 
    130 H130       33.0970   29.6739    5.2696 H         1 UNK         0.2980 
    131 H131       31.0887   28.4306    7.0486 H         1 UNK         0.0545 
    132 H132       33.0841   31.2895    8.9735 H         1 UNK         0.3459 
    133 H133       33.7819   30.3888    7.6497 H         1 UNK         0.3459 
    134 H134       30.8737   30.8012    5.1220 H         1 UNK         0.0616 
    135 H135       29.5899   30.2469    6.1608 H         1 UNK         0.0616 
    136 H136       31.1068   29.9900    2.7567 H         1 UNK         0.0634 
    137 H137       32.1342   28.7307    3.4005 H         1 UNK         0.0634 
@<TRIPOS>BOND
     1    1    2 1    
     2    1   72 1    
     3    1   73 1    
     4    1   74 1    
     5    2    3 2    
     6    2    4 am   BACKBONE|DICT|INTERRES
     7    4    5 1    
     8    4   75 1    
     9    5    6 1    
    10    5   35 1    
    11    5   76 1    
    12    6    7 1    
    13    6   77 1    
    14    6   78 1    
    15    7    8 1    
    16    8    9 1    
    17    8   79 1    
    18    8   80 1    
    19    9   10 ar   
    20    9   14 ar   
    21   10   11 ar   
    22   10   81 1    
    23   11   12 ar   
    24   11   71 1    
    25   12   13 ar   
    26   12   82 1    
    27   13   14 ar   
    28   13   15 1    
    29   14   83 1    
    30   15   16 1    
    31   15   84 1    
    32   15   85 1    
    33   16   17 1    
    34   17   18 1    
    35   17   86 1    
    36   17   87 1    
    37   18   19 1    
    38   18   37 1    
    39   18   88 1    
    40   19   20 am   BACKBONE|DICT|INTERRES
    41   19   89 1    
    42   20   21 2    
    43   20   22 1    
    44   22   23 1    
    45   22   24 1    
    46   22   90 1    
    47   23   91 1    
    48   23   92 1    
    49   23   93 1    
    50   24   25 am   BACKBONE|DICT|INTERRES
    51   24   94 1    
    52   25   26 2    
    53   25   27 1    
    54   27   28 1    
    55   27   29 1    
    56   27   95 1    
    57   28   96 1    
    58   28   97 1    
    59   28   98 1    
    60   29   30 am   BACKBONE|DICT|INTERRES
    61   29   99 1    
    62   30   31 2    
    63   30   32 1    
    64   32   33 1    
    65   32   34 1    
    66   32  100 1    
    67   33  101 1    
    68   33  102 1    
    69   33  103 1    
    70   34   35 am   BACKBONE|DICT|INTERRES
    71   34  104 1    
    72   35   36 2    
    73   37   38 2    
    74   37   39 am   BACKBONE|DICT|INTERRES
    75   39   40 1    
    76   39  105 1    
    77   40   41 1    
    78   40   42 1    
    79   40  106 1    
    80   41  107 1    
    81   41  108 1    
    82   41  109 1    
    83   42   43 2    
    84   42   44 am   BACKBONE|DICT|INTERRES
    85   44   45 1    
    86   44  110 1    
    87   45   46 1    
    88   45   47 1    
    89   45  111 1    
    90   46  112 1    
    91   46  113 1    
    92   46  114 1    
    93   47   48 2    
    94   47   49 am   BACKBONE|DICT|INTERRES
    95   49   50 1    
    96   49  115 1    
    97   50   51 1    
    98   50   52 1    
    99   50  116 1    
   100   51  117 1    
   101   51  118 1    
   102   51  119 1    
   103   52   53 2    
   104   52   54 am   BACKBONE|DICT|INTERRES
   105   54   55 1    
   106   54  120 1    
   107   55   56 1    
   108   55   57 1    
   109   55  121 1    
   110   56  122 1    
   111   56  123 1    
   112   56  124 1    
   113   57   58 2    
   114   57   59 am   BACKBONE|DICT|INTERRES
   115   59   60 1    
   116   59  125 1    
   117   60   61 1    
   118   60   62 1    
   119   60  126 1    
   120   61  127 1    
   121   61  128 1    
   122   61  129 1    
   123   62   63 2    
   124   62   64 am   BACKBONE|DICT|INTERRES
   125   64   65 1    
   126   64  130 1    
   127   65   66 1    
   128   65   69 1    
   129   65  131 1    
   130   66   67 am   BACKBONE|DICT|INTERRES
   131   66   68 2    
   132   67  132 1    
   133   67  133 1    
   134   69   70 1    
   135   69  134 1    
   136   69  135 1    
   137   70   71 1    
   138   71  136 1    
   139   71  137 1    
@<TRIPOS>SUBSTRUCTURE
     1 UNK         1 GROUP             0       ****    0 ROOT    
