@<TRIPOS>MOLECULE
3R136
137   139    1
SMALL
USER_CHARGES


@<TRIPOS>ATOM
      1 CA         29.6406   20.0388   -2.6123 C.3       0 UNK        -0.1979 
      2 C          29.0808   21.1971   -1.7993 C.2       0 UNK         0.4864 
      3 O          28.6760   20.9894   -0.6556 O.2       0 UNK        -0.5359 
      4 N          29.0705   22.4019   -2.3889 N.am      1 UNK        -0.4318 
      5 CA         28.5750   23.6692   -1.8343 C.3       1 UNK         0.0824 
      6 C6         29.3304   24.1544   -0.5662 C.3       12 UNK        -0.0944 
      7 S7         31.0916   24.4647   -0.9178 S.3       12 UNK        -0.2672 
      8 C8         31.9148   23.2703    0.1844 C.3       12 UNK         0.0333 
      9 C9         32.1503   23.8348    1.5805 C.ar      12 UNK        -0.0807 
     10 C10        32.9469   24.9720    1.7448 C.ar      12 UNK        -0.0894 
     11 C11        33.2239   25.4728    3.0190 C.ar      12 UNK        -0.0804 
     12 C12        32.7014   24.8236    4.1415 C.ar      12 UNK        -0.0824 
     13 C13        31.9145   23.6758    3.9943 C.ar      12 UNK        -0.0762 
     14 C14        31.6331   23.1922    2.7107 C.ar      12 UNK        -0.0782 
     15 C15        31.4182   22.9248    5.2238 C.3       12 UNK         0.0230 
     16 S16        29.6246   23.0981    5.4779 S.3       12 UNK        -0.2608 
     17 C17        29.4702   24.8657    5.9085 C.3       12 UNK        -0.0989 
     18 CA         29.0109   25.7205    4.7005 C.3       5 UNK         0.0716 
     19 N          27.7538   25.2254    4.1228 N.am      5 UNK        -0.4135 
     20 C          27.3402   25.4400    2.8688 C.2       4 UNK         0.5031 
     21 O          27.9860   26.1122    2.0588 O.2       4 UNK        -0.5229 
     22 CA         25.9968   24.8112    2.4553 C.3       4 UNK         0.0329 
     23 CB         24.9348   24.8188    3.5787 C.3       4 UNK        -0.2001 
     24 N          25.4888   25.4192    1.2213 N.am      4 UNK        -0.4303 
     25 C          25.0416   26.6735    1.0425 C.2       3 UNK         0.5044 
     26 O          24.8360   27.4656    1.9634 O.2       3 UNK        -0.5152 
     27 CA         24.8148   27.1563   -0.4076 C.3       3 UNK         0.0319 
     28 CB         25.7109   28.3717   -0.7091 C.3       3 UNK        -0.2001 
     29 N          25.0755   26.1302   -1.4214 N.am      3 UNK        -0.4354 
     30 C          24.2632   25.1085   -1.7279 C.2       2 UNK         0.4964 
     31 O          23.1317   24.9713   -1.2632 O.2       2 UNK        -0.5047 
     32 CA         24.8246   24.0355   -2.6844 C.3       2 UNK         0.0288 
     33 CB         24.3272   24.2805   -4.1183 C.3       2 UNK        -0.2113 
     34 N          26.2929   23.9412   -2.6908 N.am      2 UNK        -0.4145 
     35 C          27.0482   23.6291   -1.6256 C.2       1 UNK         0.5006 
     36 O          26.5759   23.3521   -0.5221 O.2       1 UNK        -0.5103 
     37 C          28.9327   27.2301    5.0284 C.2       5 UNK         0.5055 
     38 O          29.2171   27.6424    6.1528 O.2       5 UNK        -0.5220 
     39 N          28.5372   28.0208    4.0285 N.am      6 UNK        -0.4450 
     40 CA         28.4060   29.4746    4.0396 C.3       6 UNK         0.0367 
     41 CB         27.0433   29.8720    4.6389 C.3       6 UNK        -0.1929 
     42 C          28.6110   30.0281    2.6172 C.2       6 UNK         0.5070 
     43 O          28.1079   31.1062    2.3008 O.2       6 UNK        -0.5237 
     44 N          29.3350   29.2762    1.7726 N.am      7 UNK        -0.4739 
     45 CA         29.6092   29.5995    0.3689 C.3       7 UNK         0.0276 
     46 CB         30.1529   28.3400   -0.3259 C.3       7 UNK        -0.1927 
     47 C          30.5744   30.7845    0.1773 C.2       7 UNK         0.5013 
     48 O          30.6091   31.3637   -0.9094 O.2       7 UNK        -0.5193 
     49 N          31.3306   31.1245    1.2248 N.am      8 UNK        -0.4253 
     50 CA         32.2456   32.2545    1.3022 C.3       8 UNK         0.0242 
     51 CB         33.6244   31.8398    0.7556 C.3       8 UNK        -0.2000 
     52 C          32.3422   32.6858    2.7688 C.2       8 UNK         0.4948 
     53 O          31.9657   31.9180    3.6607 O.2       8 UNK        -0.5275 
     54 N          32.9047   33.8790    3.0030 N.am      9 UNK        -0.4246 
     55 CA         33.1653   34.4335    4.3388 C.3       9 UNK         0.0261 
     56 CB         33.6762   35.8769    4.2010 C.3       9 UNK        -0.1959 
     57 C          34.1432   33.5930    5.1836 C.2       9 UNK         0.5033 
     58 O          34.0658   33.6309    6.4119 O.2       9 UNK        -0.5390 
     59 N          35.0225   32.8336    4.5139 N.am      10 UNK        -0.4215 
     60 CA         35.9033   31.8361    5.1237 C.3       10 UNK         0.0240 
     61 CB         36.9854   31.4318    4.1088 C.3       10 UNK        -0.1982 
     62 C          35.1490   30.5898    5.6251 C.2       10 UNK         0.4970 
     63 O          35.6213   29.9488    6.5648 O.2       10 UNK        -0.4916 
     64 N          34.0114   30.2640    4.9965 N.am      11 UNK        -0.4279 
     65 CA         33.1251   29.1641    5.3978 C.3       11 UNK         0.1003 
     66 C          32.1767   29.6089    6.5395 C.2       11 UNK         0.5709 
     67 N          31.5148   30.7525    6.3987 N.am      11 UNK        -0.7358 
     68 O          32.0631   28.9319    7.5579 O.2       11 UNK        -0.4999 
     69 C69        32.3165   28.5706    4.2102 C.3       12 UNK        -0.0954 
     70 S70        33.3121   28.2354    2.7212 S.3       12 UNK        -0.2268 
     71 C71        34.1379   26.6794    3.1724 C.3       12 UNK         0.0203 
     72 H72        28.8813   19.2674   -2.7381 H         1 UNK         0.0888 
     73 H73        29.9703   20.3543   -3.6021 H         1 UNK         0.0888 
     74 H74        30.4931   19.5972   -2.0969 H         1 UNK         0.0888 
     75 H75        29.4266   22.4710   -3.3321 H         1 UNK         0.3017 
     76 H76        28.7580   24.4183   -2.6069 H         1 UNK         0.0873 
     77 H77        28.9037   25.0930   -0.2101 H         1 UNK         0.0745 
     78 H78        29.2238   23.4480    0.2586 H         1 UNK         0.0745 
     79 H79        32.8813   23.0111   -0.2497 H         1 UNK         0.0705 
     80 H80        31.3409   22.3430    0.2202 H         1 UNK         0.0705 
     81 H81        33.3627   25.4640    0.8758 H         1 UNK         0.1334 
     82 H82        32.9308   25.1962    5.1306 H         1 UNK         0.1417 
     83 H83        31.0312   22.3006    2.5970 H         1 UNK         0.1562 
     84 H84        31.9435   23.2533    6.1220 H         1 UNK         0.0748 
     85 H85        31.6523   21.8653    5.1103 H         1 UNK         0.0748 
     86 H86        30.4250   25.2268    6.2957 H         1 UNK         0.0940 
     87 H87        28.7593   24.9549    6.7321 H         1 UNK         0.0940 
     88 H88        29.7835   25.6261    3.9339 H         1 UNK         0.0703 
     89 H89        27.1755   24.6721    4.7373 H         1 UNK         0.3081 
     90 H90        26.2111   23.7709    2.2064 H         1 UNK         0.0719 
     91 H91        25.2098   24.1452    4.3906 H         1 UNK         0.0809 
     92 H92        23.9662   24.4845    3.2067 H         1 UNK         0.0809 
     93 H93        24.8004   25.8120    4.0088 H         1 UNK         0.0809 
     94 H94        25.6648   24.8580    0.3947 H         1 UNK         0.2990 
     95 H95        23.7715   27.4686   -0.4871 H         1 UNK         0.0690 
     96 H96        25.5384   28.7552   -1.7149 H         1 UNK         0.0788 
     97 H97        26.7691   28.1223   -0.6184 H         1 UNK         0.0788 
     98 H98        25.5114   29.1896   -0.0152 H         1 UNK         0.0788 
     99 H99        25.9788   26.1663   -1.8699 H         1 UNK         0.2993 
    100 H100       24.4359   23.0723   -2.3462 H         1 UNK         0.0949 
    101 H101       23.2375   24.3272   -4.1510 H         1 UNK         0.0767 
    102 H102       24.7057   25.2202   -4.5227 H         1 UNK         0.0767 
    103 H103       24.6341   23.4770   -4.7884 H         1 UNK         0.0767 
    104 H104       26.7498   24.1396   -3.5698 H         1 UNK         0.3013 
    105 H105       28.2876   27.5585    3.1541 H         1 UNK         0.3121 
    106 H106       29.1984   29.8980    4.6602 H         1 UNK         0.0774 
    107 H107       26.9368   30.9561    4.6908 H         1 UNK         0.0815 
    108 H108       26.2171   29.4880    4.0387 H         1 UNK         0.0815 
    109 H109       26.9279   29.4894    5.6530 H         1 UNK         0.0815 
    110 H110       29.7272   28.4092    2.1107 H         1 UNK         0.2987 
    111 H111       28.6644   29.8746   -0.1049 H         1 UNK         0.0949 
    112 H112       29.4434   27.5147   -0.2621 H         1 UNK         0.0806 
    113 H113       30.3386   28.5249   -1.3847 H         1 UNK         0.0806 
    114 H114       31.0929   28.0072    0.1171 H         1 UNK         0.0806 
    115 H115       31.2031   30.6358    2.1016 H         1 UNK         0.3010 
    116 H116       31.8461   33.0885    0.7210 H         1 UNK         0.0829 
    117 H117       33.5553   31.5114   -0.2816 H         1 UNK         0.0813 
    118 H118       34.3297   32.6710    0.7811 H         1 UNK         0.0813 
    119 H119       34.0575   31.0219    1.3333 H         1 UNK         0.0813 
    120 H120       33.1858   34.4474    2.2162 H         1 UNK         0.3038 
    121 H121       32.2146   34.4565    4.8760 H         1 UNK         0.0769 
    122 H122       34.6153   35.9232    3.6481 H         1 UNK         0.0811 
    123 H123       33.8531   36.3231    5.1808 H         1 UNK         0.0811 
    124 H124       32.9509   36.5082    3.6873 H         1 UNK         0.0811 
    125 H125       35.0330   32.8965    3.5069 H         1 UNK         0.3204 
    126 H126       36.3939   32.2946    5.9851 H         1 UNK         0.0748 
    127 H127       37.6777   30.7098    4.5445 H         1 UNK         0.0771 
    128 H128       36.5541   30.9723    3.2183 H         1 UNK         0.0771 
    129 H129       37.5752   32.2924    3.7924 H         1 UNK         0.0771 
    130 H130       33.6406   30.8767    4.2827 H         1 UNK         0.2980 
    131 H131       33.7449   28.3573    5.7930 H         1 UNK         0.0545 
    132 H132       31.6162   31.2956    5.5484 H         1 UNK         0.3459 
    133 H133       30.9031   31.0661    7.1344 H         1 UNK         0.3459 
    134 H134       31.5217   29.2537    3.9101 H         1 UNK         0.0616 
    135 H135       31.8219   27.6481    4.5154 H         1 UNK         0.0616 
    136 H136       34.5291   26.7488    4.1881 H         1 UNK         0.0634 
    137 H137       35.0064   26.5512    2.5249 H         1 UNK         0.0634 
@<TRIPOS>BOND
     1    1    2 1    
     2    1   72 1    
     3    1   73 1    
     4    1   74 1    
     5    2    3 2    
     6    2    4 am   BACKBONE|DICT|INTERRES
     7    4    5 1    
     8    4   75 1    
     9    5    6 1    
    10    5   35 1    
    11    5   76 1    
    12    6    7 1    
    13    6   77 1    
    14    6   78 1    
    15    7    8 1    
    16    8    9 1    
    17    8   79 1    
    18    8   80 1    
    19    9   10 ar   
    20    9   14 ar   
    21   10   11 ar   
    22   10   81 1    
    23   11   12 ar   
    24   11   71 1    
    25   12   13 ar   
    26   12   82 1    
    27   13   14 ar   
    28   13   15 1    
    29   14   83 1    
    30   15   16 1    
    31   15   84 1    
    32   15   85 1    
    33   16   17 1    
    34   17   18 1    
    35   17   86 1    
    36   17   87 1    
    37   18   19 1    
    38   18   37 1    
    39   18   88 1    
    40   19   20 am   BACKBONE|DICT|INTERRES
    41   19   89 1    
    42   20   21 2    
    43   20   22 1    
    44   22   23 1    
    45   22   24 1    
    46   22   90 1    
    47   23   91 1    
    48   23   92 1    
    49   23   93 1    
    50   24   25 am   BACKBONE|DICT|INTERRES
    51   24   94 1    
    52   25   26 2    
    53   25   27 1    
    54   27   28 1    
    55   27   29 1    
    56   27   95 1    
    57   28   96 1    
    58   28   97 1    
    59   28   98 1    
    60   29   30 am   BACKBONE|DICT|INTERRES
    61   29   99 1    
    62   30   31 2    
    63   30   32 1    
    64   32   33 1    
    65   32   34 1    
    66   32  100 1    
    67   33  101 1    
    68   33  102 1    
    69   33  103 1    
    70   34   35 am   BACKBONE|DICT|INTERRES
    71   34  104 1    
    72   35   36 2    
    73   37   38 2    
    74   37   39 am   BACKBONE|DICT|INTERRES
    75   39   40 1    
    76   39  105 1    
    77   40   41 1    
    78   40   42 1    
    79   40  106 1    
    80   41  107 1    
    81   41  108 1    
    82   41  109 1    
    83   42   43 2    
    84   42   44 am   BACKBONE|DICT|INTERRES
    85   44   45 1    
    86   44  110 1    
    87   45   46 1    
    88   45   47 1    
    89   45  111 1    
    90   46  112 1    
    91   46  113 1    
    92   46  114 1    
    93   47   48 2    
    94   47   49 am   BACKBONE|DICT|INTERRES
    95   49   50 1    
    96   49  115 1    
    97   50   51 1    
    98   50   52 1    
    99   50  116 1    
   100   51  117 1    
   101   51  118 1    
   102   51  119 1    
   103   52   53 2    
   104   52   54 am   BACKBONE|DICT|INTERRES
   105   54   55 1    
   106   54  120 1    
   107   55   56 1    
   108   55   57 1    
   109   55  121 1    
   110   56  122 1    
   111   56  123 1    
   112   56  124 1    
   113   57   58 2    
   114   57   59 am   BACKBONE|DICT|INTERRES
   115   59   60 1    
   116   59  125 1    
   117   60   61 1    
   118   60   62 1    
   119   60  126 1    
   120   61  127 1    
   121   61  128 1    
   122   61  129 1    
   123   62   63 2    
   124   62   64 am   BACKBONE|DICT|INTERRES
   125   64   65 1    
   126   64  130 1    
   127   65   66 1    
   128   65   69 1    
   129   65  131 1    
   130   66   67 am   BACKBONE|DICT|INTERRES
   131   66   68 2    
   132   67  132 1    
   133   67  133 1    
   134   69   70 1    
   135   69  134 1    
   136   69  135 1    
   137   70   71 1    
   138   71  136 1    
   139   71  137 1    
@<TRIPOS>SUBSTRUCTURE
     1 UNK         1 GROUP             0       ****    0 ROOT    
