@<TRIPOS>MOLECULE
3R136
137   139    1
SMALL
USER_CHARGES


@<TRIPOS>ATOM
      1 CA         27.6911   19.8309   -2.5071 C.3       0 UNK        -0.1979 
      2 C          28.1668   21.1818   -1.9947 C.2       0 UNK         0.4864 
      3 O          27.5981   22.2115   -2.3617 O.2       0 UNK        -0.5359 
      4 N          29.1964   21.1890   -1.1353 N.am      1 UNK        -0.4318 
      5 CA         29.7995   22.3973   -0.5549 C.3       1 UNK         0.0824 
      6 C6         31.1900   22.1107    0.0658 C.3       12 UNK        -0.0944 
      7 S7         31.1488   20.9872    1.5088 S.3       12 UNK        -0.2672 
      8 C8         32.6186   21.5194    2.4520 C.3       12 UNK         0.0333 
      9 C9         32.5432   22.9765    2.8932 C.ar      12 UNK        -0.0807 
     10 C10        33.4591   23.9111    2.3969 C.ar      12 UNK        -0.0894 
     11 C11        33.3775   25.2535    2.7786 C.ar      12 UNK        -0.0804 
     12 C12        32.3695   25.6611    3.6553 C.ar      12 UNK        -0.0824 
     13 C13        31.4527   24.7381    4.1617 C.ar      12 UNK        -0.0762 
     14 C14        31.5531   23.3935    3.7889 C.ar      12 UNK        -0.0782 
     15 C15        30.3329   25.2017    5.0790 C.3       12 UNK         0.0230 
     16 S16        28.7469   25.1169    4.1998 S.3       12 UNK        -0.2608 
     17 C17        27.9482   26.6995    4.6150 C.3       12 UNK        -0.0989 
     18 CA         28.3657   27.8846    3.7037 C.3       5 UNK         0.0716 
     19 N          28.4279   27.5289    2.2784 N.am      5 UNK        -0.4135 
     20 C          28.8172   28.3470    1.2877 C.2       4 UNK         0.5031 
     21 O          29.1200   29.5282    1.4536 O.2       4 UNK        -0.5229 
     22 CA         28.8180   27.7796   -0.1385 C.3       4 UNK         0.0329 
     23 CB         30.2083   27.2373   -0.5028 C.3       4 UNK        -0.2001 
     24 N          27.8061   26.7380   -0.3296 N.am      4 UNK        -0.4303 
     25 C          26.4942   26.9846   -0.4682 C.2       3 UNK         0.5044 
     26 O          26.0097   28.1162   -0.4386 O.2       3 UNK        -0.5152 
     27 CA         25.5568   25.7787   -0.6687 C.3       3 UNK         0.0319 
     28 CB         25.3378   25.5136   -2.1665 C.3       3 UNK        -0.2001 
     29 N          26.0366   24.5518   -0.0311 N.am      3 UNK        -0.4354 
     30 C          26.1143   24.3644    1.2944 C.2       2 UNK         0.4964 
     31 O          25.7257   25.1878    2.1233 O.2       2 UNK        -0.5047 
     32 CA         26.7588   23.0506    1.7778 C.3       2 UNK         0.0288 
     33 CB         25.6793   21.9796    2.0022 C.3       2 UNK        -0.2113 
     34 N          27.7937   22.5081    0.8891 N.am      2 UNK        -0.4145 
     35 C          28.8679   23.1617    0.4148 C.2       1 UNK         0.5006 
     36 O          29.1160   24.3385    0.6746 O.2       1 UNK        -0.5103 
     37 C          27.4462   29.0929    3.9820 C.2       5 UNK         0.5055 
     38 O          27.7144   29.8625    4.9048 O.2       5 UNK        -0.5220 
     39 N          26.3858   29.2354    3.1725 N.am      6 UNK        -0.4450 
     40 CA         25.4443   30.3541    3.2073 C.3       6 UNK         0.0367 
     41 CB         24.1957   29.9831    2.3910 C.3       6 UNK        -0.1929 
     42 C          26.0475   31.6749    2.6955 C.2       6 UNK         0.5070 
     43 O          25.5861   32.7381    3.1115 O.2       6 UNK        -0.5237 
     44 N          27.0526   31.5980    1.8109 N.am      7 UNK        -0.4739 
     45 CA         27.8014   32.7548    1.3192 C.3       7 UNK         0.0276 
     46 CB         28.3592   32.4684   -0.0854 C.3       7 UNK        -0.1927 
     47 C          28.9206   33.1274    2.3011 C.2       7 UNK         0.5013 
     48 O          29.0294   34.2969    2.6725 O.2       7 UNK        -0.5193 
     49 N          29.7051   32.1299    2.7295 N.am      8 UNK        -0.4253 
     50 CA         30.7448   32.2656    3.7448 C.3       8 UNK         0.0242 
     51 CB         31.9978   32.9443    3.1574 C.3       8 UNK        -0.2000 
     52 C          31.0861   30.8762    4.2841 C.2       8 UNK         0.4948 
     53 O          31.4256   29.9926    3.4971 O.2       8 UNK        -0.5275 
     54 N          31.0608   30.7151    5.6138 N.am      9 UNK        -0.4246 
     55 CA         31.3575   29.4557    6.3111 C.3       9 UNK         0.0261 
     56 CB         31.0627   29.6245    7.8100 C.3       9 UNK        -0.1959 
     57 C          32.7897   28.9263    6.0991 C.2       9 UNK         0.5033 
     58 O          33.0097   27.7241    6.2415 O.2       9 UNK        -0.5390 
     59 N          33.7234   29.8226    5.7562 N.am      10 UNK        -0.4215 
     60 CA         35.1105   29.5113    5.4061 C.3       10 UNK         0.0240 
     61 CB         36.0326   30.4893    6.1575 C.3       10 UNK        -0.1982 
     62 C          35.3704   29.5702    3.8868 C.2       10 UNK         0.4970 
     63 O          36.5257   29.4244    3.4865 O.2       10 UNK        -0.4916 
     64 N          34.3289   29.7994    3.0696 N.am      11 UNK        -0.4279 
     65 CA         34.3935   29.9780    1.6049 C.3       11 UNK         0.1003 
     66 C          35.1808   31.2399    1.1292 C.2       11 UNK         0.5709 
     67 N          35.4675   32.2090    1.9909 N.am      11 UNK        -0.7358 
     68 O          35.5055   31.3680   -0.0491 O.2       11 UNK        -0.4999 
     69 C69        34.8101   28.6819    0.8469 C.3       12 UNK        -0.0954 
     70 S70        33.5718   27.3585    1.0231 S.3       12 UNK        -0.2268 
     71 C71        34.3658   26.2766    2.2464 C.3       12 UNK         0.0203 
     72 H72        28.2755   19.0090   -2.0937 H         1 UNK         0.0888 
     73 H73        26.6468   19.6741   -2.2383 H         1 UNK         0.0888 
     74 H74        27.7731   19.7926   -3.5929 H         1 UNK         0.0888 
     75 H75        29.6205   20.3158   -0.8532 H         1 UNK         0.3017 
     76 H76        29.9684   23.0836   -1.3879 H         1 UNK         0.0873 
     77 H77        31.8477   21.6723   -0.6862 H         1 UNK         0.0745 
     78 H78        31.6591   23.0550    0.3450 H         1 UNK         0.0745 
     79 H79        32.7186   20.8860    3.3344 H         1 UNK         0.0705 
     80 H80        33.5083   21.3419    1.8457 H         1 UNK         0.0705 
     81 H81        34.2293   23.5969    1.7058 H         1 UNK         0.1334 
     82 H82        32.2927   26.7048    3.9278 H         1 UNK         0.1417 
     83 H83        30.8352   22.6777    4.1661 H         1 UNK         0.1562 
     84 H84        30.5192   26.2183    5.4279 H         1 UNK         0.0748 
     85 H85        30.2918   24.5695    5.9669 H         1 UNK         0.0748 
     86 H86        28.1414   26.9349    5.6636 H         1 UNK         0.0940 
     87 H87        26.8721   26.5254    4.5415 H         1 UNK         0.0940 
     88 H88        29.3783   28.1808    3.9816 H         1 UNK         0.0703 
     89 H89        28.2201   26.5644    2.0563 H         1 UNK         0.3081 
     90 H90        28.5928   28.6024   -0.8207 H         1 UNK         0.0719 
     91 H91        30.5447   26.4718    0.1975 H         1 UNK         0.0809 
     92 H92        30.2225   26.8090   -1.5049 H         1 UNK         0.0809 
     93 H93        30.9487   28.0380   -0.4812 H         1 UNK         0.0809 
     94 H94        28.1316   25.7781   -0.2733 H         1 UNK         0.2990 
     95 H95        24.5932   26.0354   -0.2232 H         1 UNK         0.0690 
     96 H96        24.6053   24.7222   -2.3264 H         1 UNK         0.0788 
     97 H97        26.2632   25.2191   -2.6638 H         1 UNK         0.0788 
     98 H98        24.9647   26.4060   -2.6712 H         1 UNK         0.0788 
     99 H99        26.3824   23.8238   -0.6423 H         1 UNK         0.2993 
    100 H100       27.2342   23.2533    2.7367 H         1 UNK         0.0949 
    101 H101       24.9044   22.3425    2.6792 H         1 UNK         0.0767 
    102 H102       25.1911   21.6965    1.0687 H         1 UNK         0.0767 
    103 H103       26.1000   21.0787    2.4496 H         1 UNK         0.0767 
    104 H104       27.6841   21.5440    0.6120 H         1 UNK         0.3013 
    105 H105       26.2477   28.5502    2.4426 H         1 UNK         0.3121 
    106 H106       25.1419   30.5109    4.2451 H         1 UNK         0.0774 
    107 H107       23.4590   30.7872    2.4181 H         1 UNK         0.0815 
    108 H108       24.4386   29.7987    1.3434 H         1 UNK         0.0815 
    109 H109       23.7127   29.0894    2.7864 H         1 UNK         0.0815 
    110 H110       27.4265   30.6873    1.5694 H         1 UNK         0.2987 
    111 H111       27.1266   33.6103    1.2386 H         1 UNK         0.0949 
    112 H112       29.0721   31.6439   -0.0872 H         1 UNK         0.0806 
    113 H113       27.5607   32.2208   -0.7849 H         1 UNK         0.0806 
    114 H114       28.8767   33.3433   -0.4810 H         1 UNK         0.0806 
    115 H115       29.5623   31.1867    2.3696 H         1 UNK         0.3010 
    116 H116       30.3570   32.8775    4.5623 H         1 UNK         0.0829 
    117 H117       31.7883   33.9663    2.8418 H         1 UNK         0.0813 
    118 H118       32.8007   32.9949    3.8935 H         1 UNK         0.0813 
    119 H119       32.3779   32.4019    2.2913 H         1 UNK         0.0813 
    120 H120       30.7768   31.4925    6.1935 H         1 UNK         0.3038 
    121 H121       30.6773   28.6984    5.9180 H         1 UNK         0.0769 
    122 H122       31.6901   30.3939    8.2618 H         1 UNK         0.0811 
    123 H123       31.2466   28.6951    8.3511 H         1 UNK         0.0811 
    124 H124       30.0204   29.8945    7.9815 H         1 UNK         0.0811 
    125 H125       33.4455   30.7910    5.6903 H         1 UNK         0.3204 
    126 H126       35.3603   28.4982    5.7283 H         1 UNK         0.0748 
    127 H127       37.0835   30.2601    5.9752 H         1 UNK         0.0771 
    128 H128       35.8657   31.5222    5.8496 H         1 UNK         0.0771 
    129 H129       35.8758   30.4312    7.2349 H         1 UNK         0.0771 
    130 H130       33.3908   29.8508    3.4538 H         1 UNK         0.2980 
    131 H131       33.3666   30.1974    1.3101 H         1 UNK         0.0545 
    132 H132       35.9645   33.0230    1.6657 H         1 UNK         0.3459 
    133 H133       35.2131   32.1264    2.9603 H         1 UNK         0.3459 
    134 H134       35.7907   28.3291    1.1686 H         1 UNK         0.0616 
    135 H135       34.8976   28.8704   -0.2241 H         1 UNK         0.0616 
    136 H136       35.2293   25.7894    1.7910 H         1 UNK         0.0634 
    137 H137       34.7441   26.8701    3.0783 H         1 UNK         0.0634 
@<TRIPOS>BOND
     1    1    2 1    
     2    1   72 1    
     3    1   73 1    
     4    1   74 1    
     5    2    3 2    
     6    2    4 am   BACKBONE|DICT|INTERRES
     7    4    5 1    
     8    4   75 1    
     9    5    6 1    
    10    5   35 1    
    11    5   76 1    
    12    6    7 1    
    13    6   77 1    
    14    6   78 1    
    15    7    8 1    
    16    8    9 1    
    17    8   79 1    
    18    8   80 1    
    19    9   10 ar   
    20    9   14 ar   
    21   10   11 ar   
    22   10   81 1    
    23   11   12 ar   
    24   11   71 1    
    25   12   13 ar   
    26   12   82 1    
    27   13   14 ar   
    28   13   15 1    
    29   14   83 1    
    30   15   16 1    
    31   15   84 1    
    32   15   85 1    
    33   16   17 1    
    34   17   18 1    
    35   17   86 1    
    36   17   87 1    
    37   18   19 1    
    38   18   37 1    
    39   18   88 1    
    40   19   20 am   BACKBONE|DICT|INTERRES
    41   19   89 1    
    42   20   21 2    
    43   20   22 1    
    44   22   23 1    
    45   22   24 1    
    46   22   90 1    
    47   23   91 1    
    48   23   92 1    
    49   23   93 1    
    50   24   25 am   BACKBONE|DICT|INTERRES
    51   24   94 1    
    52   25   26 2    
    53   25   27 1    
    54   27   28 1    
    55   27   29 1    
    56   27   95 1    
    57   28   96 1    
    58   28   97 1    
    59   28   98 1    
    60   29   30 am   BACKBONE|DICT|INTERRES
    61   29   99 1    
    62   30   31 2    
    63   30   32 1    
    64   32   33 1    
    65   32   34 1    
    66   32  100 1    
    67   33  101 1    
    68   33  102 1    
    69   33  103 1    
    70   34   35 am   BACKBONE|DICT|INTERRES
    71   34  104 1    
    72   35   36 2    
    73   37   38 2    
    74   37   39 am   BACKBONE|DICT|INTERRES
    75   39   40 1    
    76   39  105 1    
    77   40   41 1    
    78   40   42 1    
    79   40  106 1    
    80   41  107 1    
    81   41  108 1    
    82   41  109 1    
    83   42   43 2    
    84   42   44 am   BACKBONE|DICT|INTERRES
    85   44   45 1    
    86   44  110 1    
    87   45   46 1    
    88   45   47 1    
    89   45  111 1    
    90   46  112 1    
    91   46  113 1    
    92   46  114 1    
    93   47   48 2    
    94   47   49 am   BACKBONE|DICT|INTERRES
    95   49   50 1    
    96   49  115 1    
    97   50   51 1    
    98   50   52 1    
    99   50  116 1    
   100   51  117 1    
   101   51  118 1    
   102   51  119 1    
   103   52   53 2    
   104   52   54 am   BACKBONE|DICT|INTERRES
   105   54   55 1    
   106   54  120 1    
   107   55   56 1    
   108   55   57 1    
   109   55  121 1    
   110   56  122 1    
   111   56  123 1    
   112   56  124 1    
   113   57   58 2    
   114   57   59 am   BACKBONE|DICT|INTERRES
   115   59   60 1    
   116   59  125 1    
   117   60   61 1    
   118   60   62 1    
   119   60  126 1    
   120   61  127 1    
   121   61  128 1    
   122   61  129 1    
   123   62   63 2    
   124   62   64 am   BACKBONE|DICT|INTERRES
   125   64   65 1    
   126   64  130 1    
   127   65   66 1    
   128   65   69 1    
   129   65  131 1    
   130   66   67 am   BACKBONE|DICT|INTERRES
   131   66   68 2    
   132   67  132 1    
   133   67  133 1    
   134   69   70 1    
   135   69  134 1    
   136   69  135 1    
   137   70   71 1    
   138   71  136 1    
   139   71  137 1    
@<TRIPOS>SUBSTRUCTURE
     1 UNK         1 GROUP             0       ****    0 ROOT    
