@<TRIPOS>MOLECULE
3R136
137   139    1
SMALL
USER_CHARGES


@<TRIPOS>ATOM
      1 CA         32.5741   22.4796    5.2174 C.3       0 UNK        -0.1979 
      2 C          31.0987   22.4746    4.8455 C.2       0 UNK         0.4864 
      3 O          30.2459   22.4542    5.7337 O.2       0 UNK        -0.5359 
      4 N          30.7926   22.4872    3.5409 N.am      1 UNK        -0.4318 
      5 CA         29.4268   22.4458    2.9988 C.3       1 UNK         0.0824 
      6 C6         29.3765   21.9440    1.5312 C.3       12 UNK        -0.0944 
      7 S7         30.3420   20.4023    1.2986 S.3       12 UNK        -0.2672 
      8 C8         31.3544   20.6950   -0.1971 C.3       12 UNK         0.0333 
      9 C9         31.9184   22.1071   -0.3069 C.ar      12 UNK        -0.0807 
     10 C10        32.7073   22.6521    0.7115 C.ar      12 UNK        -0.0894 
     11 C11        33.1504   23.9762    0.6305 C.ar      12 UNK        -0.0804 
     12 C12        32.8324   24.7438   -0.4942 C.ar      12 UNK        -0.0824 
     13 C13        32.0844   24.1948   -1.5400 C.ar      12 UNK        -0.0762 
     14 C14        31.6291   22.8773   -1.4368 C.ar      12 UNK        -0.0782 
     15 C15        31.8047   25.0153   -2.7938 C.3       12 UNK         0.0230 
     16 S16        30.0532   24.9966   -3.3020 S.3       12 UNK        -0.2608 
     17 C17        29.2430   25.8753   -1.9267 C.3       12 UNK        -0.0989 
     18 CA         29.1306   27.3993   -2.1974 C.3       5 UNK         0.0716 
     19 N          27.8588   27.9566   -1.7325 N.am      5 UNK        -0.4135 
     20 C          27.3695   29.1505   -2.1031 C.2       4 UNK         0.5031 
     21 O          27.9066   29.8799   -2.9369 O.2       4 UNK        -0.5229 
     22 CA         26.0613   29.6259   -1.4416 C.3       4 UNK         0.0329 
     23 CB         24.8879   29.5144   -2.4290 C.3       4 UNK        -0.2001 
     24 N          25.7194   28.9065   -0.2121 N.am      4 UNK        -0.4303 
     25 C          26.4060   28.9734    0.9359 C.2       3 UNK         0.5044 
     26 O          27.3932   29.6935    1.0925 O.2       3 UNK        -0.5152 
     27 CA         25.9258   28.0730    2.0904 C.3       3 UNK         0.0319 
     28 CB         24.9975   26.9208    1.6416 C.3       3 UNK        -0.2001 
     29 N          27.0310   27.5297    2.8844 N.am      3 UNK        -0.4354 
     30 C          28.0842   26.8174    2.4561 C.2       2 UNK         0.4964 
     31 O          28.3409   26.6028    1.2671 O.2       2 UNK        -0.5047 
     32 CA         29.0285   26.2656    3.5447 C.3       2 UNK         0.0288 
     33 CB         28.4584   26.3561    4.9783 C.3       2 UNK        -0.2113 
     34 N          29.4650   24.8937    3.2683 N.am      2 UNK        -0.4145 
     35 C          28.6955   23.7972    3.1542 C.2       1 UNK         0.5006 
     36 O          27.4638   23.8063    3.1995 O.2       1 UNK        -0.5103 
     37 C          30.3164   28.1805   -1.6001 C.2       5 UNK         0.5055 
     38 O          31.1910   28.6267   -2.3442 O.2       5 UNK        -0.5220 
     39 N          30.3028   28.3605   -0.2713 N.am      6 UNK        -0.4450 
     40 CA         31.2637   29.2064    0.4428 C.3       6 UNK         0.0367 
     41 CB         31.2770   28.8240    1.9298 C.3       6 UNK        -0.1929 
     42 C          30.9577   30.7066    0.2960 C.2       6 UNK         0.5070 
     43 O          31.8777   31.5174    0.4012 O.2       6 UNK        -0.5237 
     44 N          29.6725   31.0381    0.0961 N.am      7 UNK        -0.4739 
     45 CA         29.0680   32.3742    0.1523 C.3       7 UNK         0.0276 
     46 CB         29.6225   33.2968   -0.9535 C.3       7 UNK        -0.1927 
     47 C          29.1676   32.9740    1.5686 C.2       7 UNK         0.5013 
     48 O          29.4080   34.1737    1.7192 O.2       7 UNK        -0.5193 
     49 N          29.0004   32.1143    2.5816 N.am      8 UNK        -0.4253 
     50 CA         29.1824   32.4043    3.9996 C.3       8 UNK         0.0242 
     51 CB         30.6833   32.5756    4.3129 C.3       8 UNK        -0.2000 
     52 C          28.5834   31.2590    4.8247 C.2       8 UNK         0.4948 
     53 O          28.3069   30.1853    4.2846 O.2       8 UNK        -0.5275 
     54 N          28.4244   31.5007    6.1326 N.am      9 UNK        -0.4246 
     55 CA         27.8795   30.5498    7.1096 C.3       9 UNK         0.0261 
     56 CB         27.5628   31.3027    8.4131 C.3       9 UNK        -0.1959 
     57 C          28.7806   29.3316    7.3979 C.2       9 UNK         0.5033 
     58 O          28.3009   28.3650    7.9920 O.2       9 UNK        -0.5390 
     59 N          30.0499   29.3857    6.9813 N.am      10 UNK        -0.4215 
     60 CA         31.0287   28.3084    7.0668 C.3       10 UNK         0.0240 
     61 CB         31.7148   28.3303    8.4448 C.3       10 UNK        -0.1982 
     62 C          32.0494   28.4983    5.9402 C.2       10 UNK         0.4970 
     63 O          32.2288   29.6238    5.4681 O.2       10 UNK        -0.4916 
     64 N          32.7134   27.4050    5.5515 N.am      11 UNK        -0.4279 
     65 CA         33.8644   27.4160    4.6367 C.3       11 UNK         0.1003 
     66 C          35.1079   28.0933    5.2774 C.2       11 UNK         0.5709 
     67 N          35.9158   28.7840    4.4846 N.am      11 UNK        -0.7358 
     68 O          35.3669   27.9629    6.4728 O.2       11 UNK        -0.4999 
     69 C69        34.2094   25.9846    4.1538 C.3       12 UNK        -0.0954 
     70 S70        32.9340   25.3084    3.0401 S.3       12 UNK        -0.2268 
     71 C71        33.9849   24.5772    1.7489 C.3       12 UNK         0.0203 
     72 H72        33.2178   22.4583    4.3382 H         1 UNK         0.0888 
     73 H73        32.8123   23.3744    5.7914 H         1 UNK         0.0888 
     74 H74        32.8096   21.6093    5.8292 H         1 UNK         0.0888 
     75 H75        31.5290   22.4949    2.8513 H         1 UNK         0.3017 
     76 H76        28.8672   21.7252    3.5998 H         1 UNK         0.0873 
     77 H77        29.7152   22.7247    0.8503 H         1 UNK         0.0745 
     78 H78        28.3439   21.7361    1.2446 H         1 UNK         0.0745 
     79 H79        30.7402   20.4599   -1.0679 H         1 UNK         0.0705 
     80 H80        32.1796   19.9819   -0.2074 H         1 UNK         0.0705 
     81 H81        32.9612   22.0489    1.5718 H         1 UNK         0.1334 
     82 H82        33.1835   25.7648   -0.5608 H         1 UNK         0.1417 
     83 H83        31.0401   22.4548   -2.2397 H         1 UNK         0.1562 
     84 H84        32.4045   24.6100   -3.6097 H         1 UNK         0.0748 
     85 H85        32.1288   26.0485   -2.6655 H         1 UNK         0.0748 
     86 H86        29.7380   25.6488   -0.9796 H         1 UNK         0.0940 
     87 H87        28.2484   25.4356   -1.8357 H         1 UNK         0.0940 
     88 H88        29.1523   27.5608   -3.2779 H         1 UNK         0.0703 
     89 H89        27.3702   27.4336   -1.0200 H         1 UNK         0.3081 
     90 H90        26.1941   30.6795   -1.1870 H         1 UNK         0.0719 
     91 H91        23.9709   29.9240   -2.0048 H         1 UNK         0.0809 
     92 H92        25.0938   30.0703   -3.3450 H         1 UNK         0.0809 
     93 H93        24.6952   28.4791   -2.7133 H         1 UNK         0.0809 
     94 H94        24.9198   28.2910   -0.2549 H         1 UNK         0.2990 
     95 H95        25.3594   28.7205    2.7609 H         1 UNK         0.0690 
     96 H96        24.0708   27.2945    1.2046 H         1 UNK         0.0788 
     97 H97        24.7124   26.2980    2.4898 H         1 UNK         0.0788 
     98 H98        25.4797   26.2710    0.9097 H         1 UNK         0.0788 
     99 H99        26.9844   27.7296    3.8733 H         1 UNK         0.2993 
    100 H100       29.9274   26.8794    3.5159 H         1 UNK         0.0949 
    101 H101       27.4989   25.8456    5.0715 H         1 UNK         0.0767 
    102 H102       29.1366   25.9016    5.7000 H         1 UNK         0.0767 
    103 H103       28.3160   27.3931    5.2808 H         1 UNK         0.0767 
    104 H104       30.4638   24.7692    3.1733 H         1 UNK         0.3013 
    105 H105       29.5604   27.9316    0.2733 H         1 UNK         0.3121 
    106 H106       32.2614   29.0266    0.0361 H         1 UNK         0.0774 
    107 H107       30.3062   28.9916    2.3980 H         1 UNK         0.0815 
    108 H108       32.0045   29.4229    2.4796 H         1 UNK         0.0815 
    109 H109       31.5510   27.7786    2.0629 H         1 UNK         0.0815 
    110 H110       28.9953   30.2821    0.1192 H         1 UNK         0.2987 
    111 H111       28.0032   32.2349   -0.0405 H         1 UNK         0.0949 
    112 H112       30.6694   33.5510   -0.7864 H         1 UNK         0.0806 
    113 H113       29.5417   32.8294   -1.9350 H         1 UNK         0.0806 
    114 H114       29.0654   34.2335   -0.9933 H         1 UNK         0.0806 
    115 H115       28.7236   31.1568    2.3839 H         1 UNK         0.3010 
    116 H116       28.6442   33.3225    4.2435 H         1 UNK         0.0829 
    117 H117       31.1058   33.4328    3.7888 H         1 UNK         0.0813 
    118 H118       30.8580   32.7374    5.3770 H         1 UNK         0.0813 
    119 H119       31.2546   31.6948    4.0168 H         1 UNK         0.0813 
    120 H120       28.6865   32.4081    6.4916 H         1 UNK         0.3038 
    121 H121       26.9426   30.1606    6.7053 H         1 UNK         0.0769 
    122 H122       28.4610   31.7295    8.8612 H         1 UNK         0.0811 
    123 H123       27.1168   30.6353    9.1521 H         1 UNK         0.0811 
    124 H124       26.8527   32.1122    8.2431 H         1 UNK         0.0811 
    125 H125       30.3668   30.1895    6.4536 H         1 UNK         0.3204 
    126 H126       30.5276   27.3498    6.9249 H         1 UNK         0.0748 
    127 H127       32.4610   27.5388    8.5259 H         1 UNK         0.0771 
    128 H128       32.2233   29.2784    8.6250 H         1 UNK         0.0771 
    129 H129       30.9946   28.1790    9.2492 H         1 UNK         0.0771 
    130 H130       32.5262   26.5265    6.0097 H         1 UNK         0.2980 
    131 H131       33.5854   28.0100    3.7645 H         1 UNK         0.0545 
    132 H132       36.7354   29.2173    4.8803 H         1 UNK         0.3459 
    133 H133       35.7209   28.8874    3.5011 H         1 UNK         0.3459 
    134 H134       35.1645   25.9852    3.6249 H         1 UNK         0.0616 
    135 H135       34.3358   25.3071    4.9999 H         1 UNK         0.0616 
    136 H136       34.6236   23.8122    2.1932 H         1 UNK         0.0634 
    137 H137       34.6509   25.3425    1.3468 H         1 UNK         0.0634 
@<TRIPOS>BOND
     1    1    2 1    
     2    1   72 1    
     3    1   73 1    
     4    1   74 1    
     5    2    3 2    
     6    2    4 am   BACKBONE|DICT|INTERRES
     7    4    5 1    
     8    4   75 1    
     9    5    6 1    
    10    5   35 1    
    11    5   76 1    
    12    6    7 1    
    13    6   77 1    
    14    6   78 1    
    15    7    8 1    
    16    8    9 1    
    17    8   79 1    
    18    8   80 1    
    19    9   10 ar   
    20    9   14 ar   
    21   10   11 ar   
    22   10   81 1    
    23   11   12 ar   
    24   11   71 1    
    25   12   13 ar   
    26   12   82 1    
    27   13   14 ar   
    28   13   15 1    
    29   14   83 1    
    30   15   16 1    
    31   15   84 1    
    32   15   85 1    
    33   16   17 1    
    34   17   18 1    
    35   17   86 1    
    36   17   87 1    
    37   18   19 1    
    38   18   37 1    
    39   18   88 1    
    40   19   20 am   BACKBONE|DICT|INTERRES
    41   19   89 1    
    42   20   21 2    
    43   20   22 1    
    44   22   23 1    
    45   22   24 1    
    46   22   90 1    
    47   23   91 1    
    48   23   92 1    
    49   23   93 1    
    50   24   25 am   BACKBONE|DICT|INTERRES
    51   24   94 1    
    52   25   26 2    
    53   25   27 1    
    54   27   28 1    
    55   27   29 1    
    56   27   95 1    
    57   28   96 1    
    58   28   97 1    
    59   28   98 1    
    60   29   30 am   BACKBONE|DICT|INTERRES
    61   29   99 1    
    62   30   31 2    
    63   30   32 1    
    64   32   33 1    
    65   32   34 1    
    66   32  100 1    
    67   33  101 1    
    68   33  102 1    
    69   33  103 1    
    70   34   35 am   BACKBONE|DICT|INTERRES
    71   34  104 1    
    72   35   36 2    
    73   37   38 2    
    74   37   39 am   BACKBONE|DICT|INTERRES
    75   39   40 1    
    76   39  105 1    
    77   40   41 1    
    78   40   42 1    
    79   40  106 1    
    80   41  107 1    
    81   41  108 1    
    82   41  109 1    
    83   42   43 2    
    84   42   44 am   BACKBONE|DICT|INTERRES
    85   44   45 1    
    86   44  110 1    
    87   45   46 1    
    88   45   47 1    
    89   45  111 1    
    90   46  112 1    
    91   46  113 1    
    92   46  114 1    
    93   47   48 2    
    94   47   49 am   BACKBONE|DICT|INTERRES
    95   49   50 1    
    96   49  115 1    
    97   50   51 1    
    98   50   52 1    
    99   50  116 1    
   100   51  117 1    
   101   51  118 1    
   102   51  119 1    
   103   52   53 2    
   104   52   54 am   BACKBONE|DICT|INTERRES
   105   54   55 1    
   106   54  120 1    
   107   55   56 1    
   108   55   57 1    
   109   55  121 1    
   110   56  122 1    
   111   56  123 1    
   112   56  124 1    
   113   57   58 2    
   114   57   59 am   BACKBONE|DICT|INTERRES
   115   59   60 1    
   116   59  125 1    
   117   60   61 1    
   118   60   62 1    
   119   60  126 1    
   120   61  127 1    
   121   61  128 1    
   122   61  129 1    
   123   62   63 2    
   124   62   64 am   BACKBONE|DICT|INTERRES
   125   64   65 1    
   126   64  130 1    
   127   65   66 1    
   128   65   69 1    
   129   65  131 1    
   130   66   67 am   BACKBONE|DICT|INTERRES
   131   66   68 2    
   132   67  132 1    
   133   67  133 1    
   134   69   70 1    
   135   69  134 1    
   136   69  135 1    
   137   70   71 1    
   138   71  136 1    
   139   71  137 1    
@<TRIPOS>SUBSTRUCTURE
     1 UNK         1 GROUP             0       ****    0 ROOT    
